
These predictions were generated by HydroDyn on 03-Jul-2014 at 09:37:23.

    Time            Wave1Elev              M1N1Vxi              M1N1Vyi              M1N1Vzi              M1N1Axi              M1N1Ayi              M1N1Azi             M1N1FDxi             M1N1FDyi             M1N1FDzi
   (sec)                  (m)                (m/s)                (m/s)                (m/s)              (m/s^2)              (m/s^2)              (m/s^2)                (N/m)                (N/m)                (N/m)
    0.0000          -9.6416E-01          -2.4646E-01           0.0000E+00          -3.5035E-01          -2.6764E-01           0.0000E+00           3.6999E-02          -1.4051E+03           0.0000E+00           0.0000E+00

This output file was closed on 03-Jul-2014 at 09:37:23.

