
These predictions were generated by HydroDyn on 03-Jul-2014 at 09:37:18.

    Time            Wave1Elev                J1Vxi                J1Vyi                J1Vzi                J1Axi                J1Ayi                J1Azi               J1FDxi               J1FDyi               J1FDzi              M1N1Vxi              M1N1Vyi              M1N1Vzi              M1N1Axi              M1N1Ayi              M1N1Azi             M1N1FDxi             M1N1FDyi             M1N1FDzi
   (sec)                  (m)                (m/s)                (m/s)                (m/s)              (m/s^2)              (m/s^2)              (m/s^2)                  (N)                  (N)                  (N)                (m/s)                (m/s)                (m/s)              (m/s^2)              (m/s^2)              (m/s^2)                (N/m)                (N/m)                (N/m)
    0.0000           4.2194E-01          -1.1983E-02           0.0000E+00          -4.5913E-03          -2.4059E-03           0.0000E+00           4.5152E-03           0.0000E+00           0.0000E+00           0.0000E+00           3.5162E-01           0.0000E+00          -4.6812E-01          -3.8765E-01           0.0000E+00          -2.3049E-01           2.4712E+02           0.0000E+00           0.0000E+00

This output file was closed on 03-Jul-2014 at 09:37:18.

