
These predictions were generated by HydroDyn on 03-Jul-2014 at 09:36:31.

    Time            Wave1Elev              M1N1Vxi              M1N1Vzi              M1N1Axi              M1N1Azi             M1N1FDxi             M1N1FDzi             M1N1FIxi             M1N1FIzi             M1N1FAxi             M1N1FAzi
   (sec)                  (m)                (m/s)                (m/s)              (m/s^2)              (m/s^2)                (N/m)                (N/m)                (N/m)                (N/m)                (N/m)                (N/m)
    0.0000           4.0000E+00           1.0891E+00          -4.9434E-01          -3.9391E-01          -5.3957E-01           1.5059E+03          -9.5025E+02          -3.7692E+02           2.3784E+02           0.0000E+00           0.0000E+00

This output file was closed on 03-Jul-2014 at 09:36:31.

