
These predictions were generated by HydroDyn on 03-Jul-2014 at 09:36:10.

    Time            Wave1Elev                J1Vxi                J1Vyi                J1Vzi                J1Axi                J1Ayi                J1Azi              M1N1Vxi              M1N1Vyi              M1N1Vzi              M1N1Axi              M1N1Ayi              M1N1Azi             M1N1FDxi             M1N1FDyi             M1N1FDzi             M1N1FIxi             M1N1FIyi             M1N1FIzi
   (sec)                  (m)                (m/s)                (m/s)                (m/s)              (m/s^2)              (m/s^2)              (m/s^2)                (m/s)                (m/s)                (m/s)              (m/s^2)              (m/s^2)              (m/s^2)                (N/m)                (N/m)                (N/m)                (N/m)                (N/m)                (N/m)
    0.0000           4.2194E-01           0.0000E+00           0.0000E+00           0.0000E+00           0.0000E+00           0.0000E+00           0.0000E+00           3.5755E-01           0.0000E+00          -3.7745E-01          -3.9614E-01           0.0000E+00          -2.1248E-01           3.9387E+02           0.0000E+00           0.0000E+00          -2.3006E+04           0.0000E+00           0.0000E+00

This output file was closed on 03-Jul-2014 at 09:36:10.

