
These predictions were generated by HydroDyn on 03-Jul-2014 at 09:37:08.

    Time            Wave1Elev
   (sec)                  (m)
    0.0000          -5.8344E-01

This output file was closed on 03-Jul-2014 at 09:37:08.

