
These predictions were generated by HydroDyn on 14-Apr-2016 at 09:53:39.

    Time            Wave1Elev            Wave2Elev            Wave3Elev            Wave4Elev            Wave5Elev            Wave6Elev            Wave7Elev            Wave8Elev            Wave9Elev                J1Vxi                J1Vyi                J1Vzi                J1Axi                J1Ayi                J1Azi               J1DynP               J1FBxi               J1FByi               J1FBzi               J1MBxi               J1MByi               J1MBzi              J1FBFxi              J1FBFyi              J1FBFzi              J1MBFxi              J1MBFyi              J1MBFzi               J1FDxi               J1FDyi               J1FDzi               J1FIxi               J1FIyi               J1FIzi              J1FAMxi              J1FAMyi              J1FAMzi
   (sec)                  (m)                  (m)                  (m)                  (m)                  (m)                  (m)                  (m)                  (m)                  (m)                (m/s)                (m/s)                (m/s)              (m/s^2)              (m/s^2)              (m/s^2)                 (Pa)                  (N)                  (N)                  (N)                (N-m)                (N-m)                (N-m)                  (N)                  (N)                  (N)                (N-m)                (N-m)                (N-m)                  (N)                  (N)                  (N)                  (N)                  (N)                  (N)                  (N)                  (N)                  (N)
    0.0000           4.2388E-01           4.2388E-01           4.2388E-01           3.3967E-01           3.3967E-01           3.3967E-01           3.2271E-01           3.2271E-01           3.2271E-01           1.1693E-01           0.0000E+00          -1.1865E+00          -3.4524E+00           0.0000E+00          -1.2125E+00           4.2607E+03           0.0000E+00           0.0000E+00           0.0000E+00           0.0000E+00           0.0000E+00           0.0000E+00           0.0000E+00           0.0000E+00           0.0000E+00           0.0000E+00           0.0000E+00           0.0000E+00           0.0000E+00           0.0000E+00           0.0000E+00           0.0000E+00           0.0000E+00           0.0000E+00           0.0000E+00           0.0000E+00           0.0000E+00
    0.0250           3.9427E-01           3.9427E-01           3.9427E-01           3.5750E-01           3.5750E-01           3.5750E-01           3.1091E-01           3.1091E-01           3.1091E-01           2.4342E-02           0.0000E+00          -1.1662E+00          -2.2741E+00           0.0000E+00           2.1700E+00           3.9631E+03           0.0000E+00           0.0000E+00           0.0000E+00           0.0000E+00           0.0000E+00           0.0000E+00           0.0000E+00           0.0000E+00           0.0000E+00           0.0000E+00           0.0000E+00           0.0000E+00           0.0000E+00           0.0000E+00           0.0000E+00           0.0000E+00           0.0000E+00           0.0000E+00           0.0000E+00           0.0000E+00           0.0000E+00
    0.0500           3.6552E-01           3.6552E-01           3.6552E-01           3.7662E-01           3.7662E-01           3.7662E-01           2.9783E-01           2.9783E-01           2.9783E-01          -1.0517E-02           0.0000E+00          -1.1459E+00          -2.0214E+00           0.0000E+00          -3.6325E-01           3.6742E+03           0.0000E+00           0.0000E+00           0.0000E+00           0.0000E+00           0.0000E+00           0.0000E+00           0.0000E+00           0.0000E+00           0.0000E+00           0.0000E+00           0.0000E+00           0.0000E+00           0.0000E+00           0.0000E+00           0.0000E+00           0.0000E+00           0.0000E+00           0.0000E+00           0.0000E+00           0.0000E+00           0.0000E+00
    0.0750           3.3694E-01           3.3694E-01           3.3694E-01           3.9648E-01           3.9648E-01           3.9648E-01           2.8359E-01           2.8359E-01           2.8359E-01          -6.8527E-02           0.0000E+00          -1.1333E+00          -1.2460E+00           0.0000E+00           9.1143E-01           3.3869E+03           0.0000E+00           0.0000E+00           0.0000E+00           0.0000E+00           0.0000E+00           0.0000E+00           0.0000E+00           0.0000E+00           0.0000E+00           0.0000E+00           0.0000E+00           0.0000E+00           0.0000E+00           0.0000E+00           0.0000E+00           0.0000E+00           0.0000E+00           0.0000E+00           0.0000E+00           0.0000E+00           0.0000E+00
    0.1000           3.0840E-01           3.0840E-01           3.0840E-01           4.1546E-01           4.1546E-01           4.1546E-01           2.6785E-01           2.6785E-01           2.6785E-01          -1.0406E-01           0.0000E+00          -1.1717E+00          -4.0785E+00           0.0000E+00          -3.6165E+00           3.1000E+03           0.0000E+00           0.0000E+00           0.0000E+00           0.0000E+00           0.0000E+00           0.0000E+00           0.0000E+00           0.0000E+00           0.0000E+00           0.0000E+00           0.0000E+00           0.0000E+00           0.0000E+00           0.0000E+00           0.0000E+00           0.0000E+00           0.0000E+00           0.0000E+00           0.0000E+00           0.0000E+00           0.0000E+00
    0.1250           2.7848E-01           2.7848E-01           2.7848E-01           4.3230E-01           4.3230E-01           4.3230E-01           2.5078E-01           2.5078E-01           2.5078E-01          -2.9165E-01           0.0000E+00          -1.1878E+00          -8.2615E+00           0.0000E+00           3.9766E+00           2.7992E+03           0.0000E+00           0.0000E+00           0.0000E+00           0.0000E+00           0.0000E+00           0.0000E+00           0.0000E+00           0.0000E+00           0.0000E+00           0.0000E+00           0.0000E+00           0.0000E+00           0.0000E+00           0.0000E+00           0.0000E+00           0.0000E+00           0.0000E+00           0.0000E+00           0.0000E+00           0.0000E+00           0.0000E+00
    0.1500           2.5054E-01           2.5054E-01           2.5054E-01           4.4774E-01           4.4774E-01           4.4774E-01           2.3117E-01           2.3117E-01           2.3117E-01          -4.1274E-01           0.0000E+00          -1.0429E+00          -2.0076E+00           0.0000E+00           5.3292E+00           2.5184E+03           0.0000E+00           0.0000E+00           0.0000E+00           0.0000E+00           0.0000E+00           0.0000E+00           0.0000E+00           0.0000E+00           0.0000E+00           0.0000E+00           0.0000E+00           0.0000E+00           0.0000E+00           0.0000E+00           0.0000E+00           0.0000E+00           0.0000E+00           0.0000E+00           0.0000E+00           0.0000E+00           0.0000E+00
    0.1750           2.2591E-01           2.2591E-01           2.2591E-01           4.6203E-01           4.6203E-01           4.6203E-01           2.0848E-01           2.0848E-01           2.0848E-01          -4.6103E-01           0.0000E+00          -9.2946E-01          -1.9372E+00           0.0000E+00           4.8367E+00           2.2708E+03           0.0000E+00           0.0000E+00           0.0000E+00           0.0000E+00           0.0000E+00           0.0000E+00           0.0000E+00           0.0000E+00           0.0000E+00           0.0000E+00           0.0000E+00           0.0000E+00           0.0000E+00           0.0000E+00           0.0000E+00           0.0000E+00           0.0000E+00           0.0000E+00           0.0000E+00           0.0000E+00           0.0000E+00
    0.2000           2.0428E-01           2.0428E-01           2.0428E-01           4.7566E-01           4.7566E-01           4.7566E-01           1.8337E-01           1.8337E-01           1.8337E-01          -4.7491E-01           0.0000E+00          -8.0230E-01           8.0129E-01           0.0000E+00           4.4481E+00           2.0534E+03           0.0000E+00           0.0000E+00           0.0000E+00           0.0000E+00           0.0000E+00           0.0000E+00           0.0000E+00           0.0000E+00           0.0000E+00           0.0000E+00           0.0000E+00           0.0000E+00           0.0000E+00           0.0000E+00           0.0000E+00           0.0000E+00           0.0000E+00           0.0000E+00           0.0000E+00           0.0000E+00           0.0000E+00
    0.2250           1.8539E-01           1.8539E-01           1.8539E-01           4.8973E-01           4.8973E-01           4.8973E-01           1.5779E-01           1.5779E-01           1.5779E-01          -4.5180E-01           0.0000E+00          -7.1489E-01           8.6972E-01           0.0000E+00           3.0290E+00           1.8635E+03           0.0000E+00           0.0000E+00           0.0000E+00           0.0000E+00           0.0000E+00           0.0000E+00           0.0000E+00           0.0000E+00           0.0000E+00           0.0000E+00           0.0000E+00           0.0000E+00           0.0000E+00           0.0000E+00           0.0000E+00           0.0000E+00           0.0000E+00           0.0000E+00           0.0000E+00           0.0000E+00           0.0000E+00
    0.2500           1.6840E-01           1.6840E-01           1.6840E-01           5.0356E-01           5.0356E-01           5.0356E-01           1.3206E-01           1.3206E-01           1.3206E-01          -4.2076E-01           0.0000E+00          -6.4930E-01           1.4992E+00           0.0000E+00           1.8613E+00           1.6927E+03           0.0000E+00           0.0000E+00           0.0000E+00           0.0000E+00           0.0000E+00           0.0000E+00           0.0000E+00           0.0000E+00           0.0000E+00           0.0000E+00           0.0000E+00           0.0000E+00           0.0000E+00           0.0000E+00           0.0000E+00           0.0000E+00           0.0000E+00           0.0000E+00           0.0000E+00           0.0000E+00           0.0000E+00
    0.2750           1.5258E-01           1.5258E-01           1.5258E-01           5.1735E-01           5.1735E-01           5.1735E-01           1.0596E-01           1.0596E-01           1.0596E-01          -3.9632E-01           0.0000E+00          -6.2015E-01           2.9775E-01           0.0000E+00           8.5358E-01           1.5337E+03           0.0000E+00           0.0000E+00           0.0000E+00           0.0000E+00           0.0000E+00           0.0000E+00           0.0000E+00           0.0000E+00           0.0000E+00           0.0000E+00           0.0000E+00           0.0000E+00           0.0000E+00           0.0000E+00           0.0000E+00           0.0000E+00           0.0000E+00           0.0000E+00           0.0000E+00           0.0000E+00           0.0000E+00
    0.3000           1.3738E-01           1.3738E-01           1.3738E-01           5.3206E-01           5.3206E-01           5.3206E-01           8.0361E-02           8.0361E-02           8.0361E-02          -4.0176E-01           0.0000E+00          -5.9411E-01          -6.3518E-01           0.0000E+00           1.3785E+00           1.3809E+03           0.0000E+00           0.0000E+00           0.0000E+00           0.0000E+00           0.0000E+00           0.0000E+00           0.0000E+00           0.0000E+00           0.0000E+00           0.0000E+00           0.0000E+00           0.0000E+00           0.0000E+00           0.0000E+00           0.0000E+00           0.0000E+00           0.0000E+00           0.0000E+00           0.0000E+00           0.0000E+00           0.0000E+00
    0.3250           1.2308E-01           1.2308E-01           1.2308E-01           5.4679E-01           5.4679E-01           5.4679E-01           5.7219E-02           5.7219E-02           5.7219E-02          -4.1749E-01           0.0000E+00          -5.4471E-01          -3.1653E-01           0.0000E+00           2.4838E+00           1.2372E+03           0.0000E+00           0.0000E+00           0.0000E+00           0.0000E+00           0.0000E+00           0.0000E+00           0.0000E+00           0.0000E+00           0.0000E+00           0.0000E+00           0.0000E+00           0.0000E+00           0.0000E+00           0.0000E+00           0.0000E+00           0.0000E+00           0.0000E+00           0.0000E+00           0.0000E+00           0.0000E+00           0.0000E+00
    0.3500           1.1027E-01           1.1027E-01           1.1027E-01           5.6122E-01           5.6122E-01           5.6122E-01           3.4618E-02           3.4618E-02           3.4618E-02          -4.1543E-01           0.0000E+00          -4.7970E-01           3.9084E-01           0.0000E+00           2.7718E+00           1.1084E+03           0.0000E+00           0.0000E+00           0.0000E+00           0.0000E+00           0.0000E+00           0.0000E+00           0.0000E+00           0.0000E+00           0.0000E+00           0.0000E+00           0.0000E+00           0.0000E+00           0.0000E+00           0.0000E+00           0.0000E+00           0.0000E+00           0.0000E+00           0.0000E+00           0.0000E+00           0.0000E+00           0.0000E+00
    0.3750           9.9199E-02           9.9199E-02           9.9199E-02           5.7394E-01           5.7394E-01           5.7394E-01           1.1192E-02           1.1192E-02           1.1192E-02          -3.8340E-01           0.0000E+00          -4.0615E-01           2.5079E+00           0.0000E+00           2.5035E+00           9.9713E+02           0.0000E+00           0.0000E+00           0.0000E+00           0.0000E+00           0.0000E+00           0.0000E+00           0.0000E+00           0.0000E+00           0.0000E+00           0.0000E+00           0.0000E+00           0.0000E+00           0.0000E+00           0.0000E+00           0.0000E+00           0.0000E+00           0.0000E+00           0.0000E+00           0.0000E+00           0.0000E+00           0.0000E+00
    0.4000           8.9469E-02           8.9469E-02           8.9469E-02           5.8599E-01           5.8599E-01           5.8599E-01          -1.4019E-02          -1.4019E-02          -1.4019E-02          -3.1979E-01           0.0000E+00          -3.8589E-01           1.4500E+00           0.0000E+00          -4.8227E-01           8.9933E+02           0.0000E+00           0.0000E+00           0.0000E+00           0.0000E+00           0.0000E+00           0.0000E+00           0.0000E+00           0.0000E+00           0.0000E+00           0.0000E+00           0.0000E+00           0.0000E+00           0.0000E+00           0.0000E+00           0.0000E+00           0.0000E+00           0.0000E+00           0.0000E+00           0.0000E+00           0.0000E+00           0.0000E+00
    0.4250           7.9814E-02           7.9814E-02           7.9814E-02           5.9931E-01           5.9931E-01           5.9931E-01          -4.0652E-02          -4.0652E-02          -4.0652E-02          -3.0857E-01           0.0000E+00          -3.7710E-01           6.7020E-01           0.0000E+00           1.4199E+00           8.0227E+02           0.0000E+00           0.0000E+00           0.0000E+00           0.0000E+00           0.0000E+00           0.0000E+00           0.0000E+00           0.0000E+00           0.0000E+00           0.0000E+00           0.0000E+00           0.0000E+00           0.0000E+00           0.0000E+00           0.0000E+00           0.0000E+00           0.0000E+00           0.0000E+00           0.0000E+00           0.0000E+00           0.0000E+00
    0.4500           7.0703E-02           7.0703E-02           7.0703E-02           6.1276E-01           6.1276E-01           6.1276E-01          -6.7803E-02          -6.7803E-02          -6.7803E-02          -2.6963E-01           0.0000E+00          -3.6266E-01           1.3113E+00           0.0000E+00          -8.5762E-01           7.1069E+02           0.0000E+00           0.0000E+00           0.0000E+00           0.0000E+00           0.0000E+00           0.0000E+00           0.0000E+00           0.0000E+00           0.0000E+00           0.0000E+00           0.0000E+00           0.0000E+00           0.0000E+00           0.0000E+00           0.0000E+00           0.0000E+00           0.0000E+00           0.0000E+00           0.0000E+00           0.0000E+00           0.0000E+00
    0.4750           6.1367E-02           6.1367E-02           6.1367E-02           6.2669E-01           6.2669E-01           6.2669E-01          -9.5798E-02          -9.5798E-02          -9.5798E-02          -2.7773E-01           0.0000E+00          -3.7617E-01          -1.1388E+00           0.0000E+00           8.4845E-01           6.1685E+02           0.0000E+00           0.0000E+00           0.0000E+00           0.0000E+00           0.0000E+00           0.0000E+00           0.0000E+00           0.0000E+00           0.0000E+00           0.0000E+00           0.0000E+00           0.0000E+00           0.0000E+00           0.0000E+00           0.0000E+00           0.0000E+00           0.0000E+00           0.0000E+00           0.0000E+00           0.0000E+00           0.0000E+00
    0.5000           5.2419E-02           5.2419E-02           5.2419E-02           6.4216E-01           6.4216E-01           6.4216E-01          -1.2458E-01          -1.2458E-01          -1.2458E-01          -2.7608E-01           0.0000E+00          -3.3957E-01           1.1535E+00           0.0000E+00           9.3354E-01           5.2691E+02           0.0000E+00           0.0000E+00           0.0000E+00           0.0000E+00           0.0000E+00           0.0000E+00           0.0000E+00           0.0000E+00           0.0000E+00           0.0000E+00           0.0000E+00           0.0000E+00           0.0000E+00           0.0000E+00           0.0000E+00           0.0000E+00           0.0000E+00           0.0000E+00           0.0000E+00           0.0000E+00           0.0000E+00
    0.5250           4.3981E-02           4.3981E-02           4.3981E-02           6.5741E-01           6.5741E-01           6.5741E-01          -1.5296E-01          -1.5296E-01          -1.5296E-01          -2.6132E-01           0.0000E+00          -3.4184E-01          -4.9908E-01           0.0000E+00          -5.3031E-01           4.4209E+02           0.0000E+00           0.0000E+00           0.0000E+00           0.0000E+00           0.0000E+00           0.0000E+00           0.0000E+00           0.0000E+00           0.0000E+00           0.0000E+00           0.0000E+00           0.0000E+00           0.0000E+00           0.0000E+00           0.0000E+00           0.0000E+00           0.0000E+00           0.0000E+00           0.0000E+00           0.0000E+00           0.0000E+00
    0.5500           3.5398E-02           3.5398E-02           3.5398E-02           6.7151E-01           6.7151E-01           6.7151E-01          -1.8096E-01          -1.8096E-01          -1.8096E-01          -3.0310E-01           0.0000E+00          -3.3569E-01          -2.6089E+00           0.0000E+00           1.6758E+00           3.5582E+02           0.0000E+00           0.0000E+00           0.0000E+00           0.0000E+00           0.0000E+00           0.0000E+00           0.0000E+00           0.0000E+00           0.0000E+00           0.0000E+00           0.0000E+00           0.0000E+00           0.0000E+00           0.0000E+00           0.0000E+00           0.0000E+00           0.0000E+00           0.0000E+00           0.0000E+00           0.0000E+00           0.0000E+00
    0.5750           2.8036E-02           2.8036E-02           2.8036E-02           6.8369E-01           6.8369E-01           6.8369E-01          -2.0924E-01          -2.0924E-01          -2.0924E-01          -3.4478E-01           0.0000E+00          -2.3462E-01           7.6666E-01           0.0000E+00           5.8170E+00           2.8181E+02           0.0000E+00           0.0000E+00           0.0000E+00           0.0000E+00           0.0000E+00           0.0000E+00           0.0000E+00           0.0000E+00           0.0000E+00           0.0000E+00           0.0000E+00           0.0000E+00           0.0000E+00           0.0000E+00           0.0000E+00           0.0000E+00           0.0000E+00           0.0000E+00           0.0000E+00           0.0000E+00           0.0000E+00
    0.6000           2.3724E-02           2.3724E-02           2.3724E-02           6.9456E-01           6.9456E-01           6.9456E-01          -2.3844E-01          -2.3844E-01          -2.3844E-01          -2.5284E-01           0.0000E+00          -1.3138E-01           4.9267E+00           0.0000E+00           1.1502E+00           2.3847E+02           0.0000E+00           0.0000E+00           0.0000E+00           0.0000E+00           0.0000E+00           0.0000E+00           0.0000E+00           0.0000E+00           0.0000E+00           0.0000E+00           0.0000E+00           0.0000E+00           0.0000E+00           0.0000E+00           0.0000E+00           0.0000E+00           0.0000E+00           0.0000E+00           0.0000E+00           0.0000E+00           0.0000E+00
    0.6250           2.0396E-02           2.0396E-02           2.0396E-02           7.0533E-01           7.0533E-01           7.0533E-01          -2.6789E-01          -2.6789E-01          -2.6789E-01          -1.7723E-01           0.0000E+00          -1.3954E-01           1.2508E+00           0.0000E+00          -9.1349E-02           2.0502E+02           0.0000E+00           0.0000E+00           0.0000E+00           0.0000E+00           0.0000E+00           0.0000E+00           0.0000E+00           0.0000E+00           0.0000E+00           0.0000E+00           0.0000E+00           0.0000E+00           0.0000E+00           0.0000E+00           0.0000E+00           0.0000E+00           0.0000E+00           0.0000E+00           0.0000E+00           0.0000E+00           0.0000E+00
    0.6500           1.7113E-02           1.7113E-02           1.7113E-02           7.1496E-01           7.1496E-01           7.1496E-01          -2.9734E-01          -2.9734E-01          -2.9734E-01          -1.3581E-01           0.0000E+00          -1.1881E-01           2.5002E+00           0.0000E+00           8.8173E-01           1.7202E+02           0.0000E+00           0.0000E+00           0.0000E+00           0.0000E+00           0.0000E+00           0.0000E+00           0.0000E+00           0.0000E+00           0.0000E+00           0.0000E+00           0.0000E+00           0.0000E+00           0.0000E+00           0.0000E+00           0.0000E+00           0.0000E+00           0.0000E+00           0.0000E+00           0.0000E+00           0.0000E+00           0.0000E+00
    0.6750           1.4275E-02           1.4275E-02           1.4275E-02           7.2314E-01           7.2314E-01           7.2314E-01          -3.2695E-01          -3.2695E-01          -3.2695E-01          -7.1592E-02           0.0000E+00          -1.1191E-01           2.5087E+00           0.0000E+00           2.1826E-02           1.4349E+02           0.0000E+00           0.0000E+00           0.0000E+00           0.0000E+00           0.0000E+00           0.0000E+00           0.0000E+00           0.0000E+00           0.0000E+00           0.0000E+00           0.0000E+00           0.0000E+00           0.0000E+00           0.0000E+00           0.0000E+00           0.0000E+00           0.0000E+00           0.0000E+00           0.0000E+00           0.0000E+00           0.0000E+00
    0.7000           1.1412E-02           1.1412E-02           1.1412E-02           7.3104E-01           7.3104E-01           7.3104E-01          -3.5687E-01          -3.5687E-01          -3.5687E-01           2.1991E-03           0.0000E+00          -1.2386E-01           3.1405E+00           0.0000E+00          -1.5673E+00           1.1471E+02           0.0000E+00           0.0000E+00           0.0000E+00           0.0000E+00           0.0000E+00           0.0000E+00           0.0000E+00           0.0000E+00           0.0000E+00           0.0000E+00           0.0000E+00           0.0000E+00           0.0000E+00           0.0000E+00           0.0000E+00           0.0000E+00           0.0000E+00           0.0000E+00           0.0000E+00           0.0000E+00           0.0000E+00
    0.7250           7.6151E-03           7.6151E-03           7.6151E-03           7.3946E-01           7.3946E-01           7.3946E-01          -3.8620E-01          -3.8620E-01          -3.8620E-01           5.0074E-02           0.0000E+00          -1.8280E-01           5.4429E-01           0.0000E+00          -2.2107E+00           7.6540E+01           0.0000E+00           0.0000E+00           0.0000E+00           0.0000E+00           0.0000E+00           0.0000E+00           0.0000E+00           0.0000E+00           0.0000E+00           0.0000E+00           0.0000E+00           0.0000E+00           0.0000E+00           0.0000E+00           0.0000E+00           0.0000E+00           0.0000E+00           0.0000E+00           0.0000E+00           0.0000E+00           0.0000E+00
    0.7500           2.5622E-03           2.5622E-03           2.5622E-03           7.4651E-01           7.4651E-01           7.4651E-01          -4.1625E-01          -4.1625E-01          -4.1625E-01           6.3883E-02           0.0000E+00          -2.1595E-01           1.1313E+00           0.0000E+00          -1.0329E+00           2.5754E+01           0.0000E+00           0.0000E+00           0.0000E+00           0.0000E+00           0.0000E+00           0.0000E+00           0.0000E+00           0.0000E+00           0.0000E+00           0.0000E+00           0.0000E+00           0.0000E+00           0.0000E+00           0.0000E+00           0.0000E+00           0.0000E+00           0.0000E+00           0.0000E+00           0.0000E+00           0.0000E+00           0.0000E+00
    0.7750          -3.3207E-03          -3.3207E-03          -3.3207E-03           7.5149E-01           7.5149E-01           7.5149E-01          -4.4700E-01          -4.4700E-01          -4.4700E-01           9.2840E-02           0.0000E+00          -2.6132E-01           6.1538E-01           0.0000E+00          -2.4939E+00          -3.3378E+01           0.0000E+00           0.0000E+00           0.0000E+00           0.0000E+00           0.0000E+00           0.0000E+00           0.0000E+00           0.0000E+00           0.0000E+00           0.0000E+00           0.0000E+00           0.0000E+00           0.0000E+00           0.0000E+00           0.0000E+00           0.0000E+00           0.0000E+00           0.0000E+00           0.0000E+00           0.0000E+00           0.0000E+00
    0.8000          -1.0646E-02          -1.0646E-02          -1.0646E-02           7.5557E-01           7.5557E-01           7.5557E-01          -4.7784E-01          -4.7784E-01          -4.7784E-01           8.7600E-02           0.0000E+00          -3.2388E-01          -9.3529E-01           0.0000E+00          -2.3503E+00          -1.0701E+02           0.0000E+00           0.0000E+00           0.0000E+00           0.0000E+00           0.0000E+00           0.0000E+00           0.0000E+00           0.0000E+00           0.0000E+00           0.0000E+00           0.0000E+00           0.0000E+00           0.0000E+00           0.0000E+00           0.0000E+00           0.0000E+00           0.0000E+00           0.0000E+00           0.0000E+00           0.0000E+00           0.0000E+00
    0.8250          -1.9405E-02          -1.9405E-02          -1.9405E-02           7.5816E-01           7.5816E-01           7.5816E-01          -5.0860E-01          -5.0860E-01          -5.0860E-01           4.5834E-02           0.0000E+00          -3.7257E-01          -2.3760E+00           0.0000E+00          -1.2861E+00          -1.9506E+02           0.0000E+00           0.0000E+00           0.0000E+00           0.0000E+00           0.0000E+00           0.0000E+00           0.0000E+00           0.0000E+00           0.0000E+00           0.0000E+00           0.0000E+00           0.0000E+00           0.0000E+00           0.0000E+00           0.0000E+00           0.0000E+00           0.0000E+00           0.0000E+00           0.0000E+00           0.0000E+00           0.0000E+00
    0.8500          -2.8902E-02          -2.8902E-02          -2.8902E-02           7.5911E-01           7.5911E-01           7.5911E-01          -5.3980E-01          -5.3980E-01          -5.3980E-01          -1.9238E-02           0.0000E+00          -3.7795E-01          -2.5020E+00           0.0000E+00           8.7820E-01          -2.9051E+02           0.0000E+00           0.0000E+00           0.0000E+00           0.0000E+00           0.0000E+00           0.0000E+00           0.0000E+00           0.0000E+00           0.0000E+00           0.0000E+00           0.0000E+00           0.0000E+00           0.0000E+00           0.0000E+00           0.0000E+00           0.0000E+00           0.0000E+00           0.0000E+00           0.0000E+00           0.0000E+00           0.0000E+00
    0.8750          -3.7883E-02          -3.7883E-02          -3.7883E-02           7.5942E-01           7.5942E-01           7.5942E-01          -5.7246E-01          -5.7246E-01          -5.7246E-01          -6.4908E-02           0.0000E+00          -3.3420E-01          -9.1453E-01           0.0000E+00           2.3718E+00          -3.8080E+02           0.0000E+00           0.0000E+00           0.0000E+00           0.0000E+00           0.0000E+00           0.0000E+00           0.0000E+00           0.0000E+00           0.0000E+00           0.0000E+00           0.0000E+00           0.0000E+00           0.0000E+00           0.0000E+00           0.0000E+00           0.0000E+00           0.0000E+00           0.0000E+00           0.0000E+00           0.0000E+00           0.0000E+00
    0.9000          -4.5496E-02          -4.5496E-02          -4.5496E-02           7.5923E-01           7.5923E-01           7.5923E-01          -6.0651E-01          -6.0651E-01          -6.0651E-01          -6.4123E-02           0.0000E+00          -2.7653E-01           7.4067E-01           0.0000E+00           2.0403E+00          -4.5733E+02           0.0000E+00           0.0000E+00           0.0000E+00           0.0000E+00           0.0000E+00           0.0000E+00           0.0000E+00           0.0000E+00           0.0000E+00           0.0000E+00           0.0000E+00           0.0000E+00           0.0000E+00           0.0000E+00           0.0000E+00           0.0000E+00           0.0000E+00           0.0000E+00           0.0000E+00           0.0000E+00           0.0000E+00
    0.9250          -5.1808E-02          -5.1808E-02          -5.1808E-02           7.5736E-01           7.5736E-01           7.5736E-01          -6.4054E-01          -6.4054E-01          -6.4054E-01          -3.2009E-02           0.0000E+00          -2.2969E-01           2.0658E+00           0.0000E+00           1.6340E+00          -5.2077E+02           0.0000E+00           0.0000E+00           0.0000E+00           0.0000E+00           0.0000E+00           0.0000E+00           0.0000E+00           0.0000E+00           0.0000E+00           0.0000E+00           0.0000E+00           0.0000E+00           0.0000E+00           0.0000E+00           0.0000E+00           0.0000E+00           0.0000E+00           0.0000E+00           0.0000E+00           0.0000E+00           0.0000E+00
    0.9500          -5.7276E-02          -5.7276E-02          -5.7276E-02           7.5253E-01           7.5253E-01           7.5253E-01          -6.7354E-01          -6.7354E-01          -6.7354E-01           3.6186E-02           0.0000E+00          -2.2089E-01           2.5745E+00           0.0000E+00          -1.3813E+00          -5.7573E+02           0.0000E+00           0.0000E+00           0.0000E+00           0.0000E+00           0.0000E+00           0.0000E+00           0.0000E+00           0.0000E+00           0.0000E+00           0.0000E+00           0.0000E+00           0.0000E+00           0.0000E+00           0.0000E+00           0.0000E+00           0.0000E+00           0.0000E+00           0.0000E+00           0.0000E+00           0.0000E+00           0.0000E+00
    0.9750          -6.3416E-02          -6.3416E-02          -6.3416E-02           7.4618E-01           7.4618E-01           7.4618E-01          -7.0322E-01          -7.0322E-01          -7.0322E-01           5.0672E-02           0.0000E+00          -2.6903E-01          -1.4381E+00           0.0000E+00          -1.0288E+00          -6.3745E+02           0.0000E+00           0.0000E+00           0.0000E+00           0.0000E+00           0.0000E+00           0.0000E+00           0.0000E+00           0.0000E+00           0.0000E+00           0.0000E+00           0.0000E+00           0.0000E+00           0.0000E+00           0.0000E+00           0.0000E+00           0.0000E+00           0.0000E+00           0.0000E+00           0.0000E+00           0.0000E+00           0.0000E+00
    1.0000          -6.9937E-02          -6.9937E-02          -6.9937E-02           7.3818E-01           7.3818E-01           7.3818E-01          -7.3031E-01          -7.3031E-01          -7.3031E-01           2.4966E-02           0.0000E+00          -2.3365E-01           9.3767E-01           0.0000E+00           3.2034E+00          -7.0299E+02           0.0000E+00           0.0000E+00           0.0000E+00           0.0000E+00           0.0000E+00           0.0000E+00           0.0000E+00           0.0000E+00           0.0000E+00           0.0000E+00           0.0000E+00           0.0000E+00           0.0000E+00           0.0000E+00           0.0000E+00           0.0000E+00           0.0000E+00           0.0000E+00           0.0000E+00           0.0000E+00           0.0000E+00
    1.0250          -7.4973E-02          -7.4973E-02          -7.4973E-02           7.2867E-01           7.2867E-01           7.2867E-01          -7.5686E-01          -7.5686E-01          -7.5686E-01           1.1493E-01           0.0000E+00          -1.8690E-01           5.1079E+00           0.0000E+00          -8.1678E-01          -7.5361E+02           0.0000E+00           0.0000E+00           0.0000E+00           0.0000E+00           0.0000E+00           0.0000E+00           0.0000E+00           0.0000E+00           0.0000E+00           0.0000E+00           0.0000E+00           0.0000E+00           0.0000E+00           0.0000E+00           0.0000E+00           0.0000E+00           0.0000E+00           0.0000E+00           0.0000E+00           0.0000E+00           0.0000E+00
    1.0500          -8.0490E-02          -8.0490E-02          -8.0490E-02           7.1811E-01           7.1811E-01           7.1811E-01          -7.8265E-01          -7.8265E-01          -7.8265E-01           1.9948E-01           0.0000E+00          -2.7016E-01           7.2542E-01           0.0000E+00          -4.4167E+00          -8.0907E+02           0.0000E+00           0.0000E+00           0.0000E+00           0.0000E+00           0.0000E+00           0.0000E+00           0.0000E+00           0.0000E+00           0.0000E+00           0.0000E+00           0.0000E+00           0.0000E+00           0.0000E+00           0.0000E+00           0.0000E+00           0.0000E+00           0.0000E+00           0.0000E+00           0.0000E+00           0.0000E+00           0.0000E+00
    1.0750          -8.8334E-02          -8.8334E-02          -8.8334E-02           7.0522E-01           7.0522E-01           7.0522E-01          -8.0715E-01          -8.0715E-01          -8.0715E-01           1.7669E-01           0.0000E+00          -3.4271E-01          -1.2669E+00           0.0000E+00          -1.2005E+00          -8.8792E+02           0.0000E+00           0.0000E+00           0.0000E+00           0.0000E+00           0.0000E+00           0.0000E+00           0.0000E+00           0.0000E+00           0.0000E+00           0.0000E+00           0.0000E+00           0.0000E+00           0.0000E+00           0.0000E+00           0.0000E+00           0.0000E+00           0.0000E+00           0.0000E+00           0.0000E+00           0.0000E+00           0.0000E+00
    1.1000          -9.7163E-02          -9.7163E-02          -9.7163E-02           6.8936E-01           6.8936E-01           6.8936E-01          -8.2903E-01          -8.2903E-01          -8.2903E-01           1.6166E-01           0.0000E+00          -3.6309E-01          -3.5407E-01           0.0000E+00          -8.7083E-01          -9.7667E+02           0.0000E+00           0.0000E+00           0.0000E+00           0.0000E+00           0.0000E+00           0.0000E+00           0.0000E+00           0.0000E+00           0.0000E+00           0.0000E+00           0.0000E+00           0.0000E+00           0.0000E+00           0.0000E+00           0.0000E+00           0.0000E+00           0.0000E+00           0.0000E+00           0.0000E+00           0.0000E+00           0.0000E+00
    1.1250          -1.0644E-01          -1.0644E-01          -1.0644E-01           6.7240E-01           6.7240E-01           6.7240E-01          -8.4957E-01          -8.4957E-01          -8.4957E-01           1.5160E-01           0.0000E+00          -3.7392E-01           9.8689E-02           0.0000E+00           1.0748E-01          -1.0699E+03           0.0000E+00           0.0000E+00           0.0000E+00           0.0000E+00           0.0000E+00           0.0000E+00           0.0000E+00           0.0000E+00           0.0000E+00           0.0000E+00           0.0000E+00           0.0000E+00           0.0000E+00           0.0000E+00           0.0000E+00           0.0000E+00           0.0000E+00           0.0000E+00           0.0000E+00           0.0000E+00           0.0000E+00
    1.1500          -1.1588E-01          -1.1588E-01          -1.1588E-01           6.5510E-01           6.5510E-01           6.5510E-01          -8.6936E-01          -8.6936E-01          -8.6936E-01           1.7390E-01           0.0000E+00          -3.9166E-01           7.4497E-01           0.0000E+00          -2.1078E+00          -1.1648E+03           0.0000E+00           0.0000E+00           0.0000E+00           0.0000E+00           0.0000E+00           0.0000E+00           0.0000E+00           0.0000E+00           0.0000E+00           0.0000E+00           0.0000E+00           0.0000E+00           0.0000E+00           0.0000E+00           0.0000E+00           0.0000E+00           0.0000E+00           0.0000E+00           0.0000E+00           0.0000E+00           0.0000E+00
    1.1750          -1.2638E-01          -1.2638E-01          -1.2638E-01           6.3679E-01           6.3679E-01           6.3679E-01          -8.8841E-01          -8.8841E-01          -8.8841E-01           1.4506E-01           0.0000E+00          -4.3976E-01          -2.5444E+00           0.0000E+00          -2.0988E-01          -1.2703E+03           0.0000E+00           0.0000E+00           0.0000E+00           0.0000E+00           0.0000E+00           0.0000E+00           0.0000E+00           0.0000E+00           0.0000E+00           0.0000E+00           0.0000E+00           0.0000E+00           0.0000E+00           0.0000E+00           0.0000E+00           0.0000E+00           0.0000E+00           0.0000E+00           0.0000E+00           0.0000E+00           0.0000E+00
    1.2000          -1.3695E-01          -1.3695E-01          -1.3695E-01           6.1755E-01           6.1755E-01           6.1755E-01          -9.0765E-01          -9.0765E-01          -9.0765E-01           1.2646E-01           0.0000E+00          -3.9540E-01           2.1177E+00           0.0000E+00           2.1130E+00          -1.3766E+03           0.0000E+00           0.0000E+00           0.0000E+00           0.0000E+00           0.0000E+00           0.0000E+00           0.0000E+00           0.0000E+00           0.0000E+00           0.0000E+00           0.0000E+00           0.0000E+00           0.0000E+00           0.0000E+00           0.0000E+00           0.0000E+00           0.0000E+00           0.0000E+00           0.0000E+00           0.0000E+00           0.0000E+00
    1.2250          -1.4674E-01          -1.4674E-01          -1.4674E-01           5.9705E-01           5.9705E-01           5.9705E-01          -9.2840E-01          -9.2840E-01          -9.2840E-01           2.0927E-01           0.0000E+00          -4.1374E-01           2.5469E+00           0.0000E+00          -3.7039E+00          -1.4750E+03           0.0000E+00           0.0000E+00           0.0000E+00           0.0000E+00           0.0000E+00           0.0000E+00           0.0000E+00           0.0000E+00           0.0000E+00           0.0000E+00           0.0000E+00           0.0000E+00           0.0000E+00           0.0000E+00           0.0000E+00           0.0000E+00           0.0000E+00           0.0000E+00           0.0000E+00           0.0000E+00           0.0000E+00
    1.2500          -1.5840E-01          -1.5840E-01          -1.5840E-01           5.7505E-01           5.7505E-01           5.7505E-01          -9.5053E-01          -9.5053E-01          -9.5053E-01           2.0368E-01           0.0000E+00          -5.1433E-01          -2.3877E+00           0.0000E+00          -2.7998E+00          -1.5922E+03           0.0000E+00           0.0000E+00           0.0000E+00           0.0000E+00           0.0000E+00           0.0000E+00           0.0000E+00           0.0000E+00           0.0000E+00           0.0000E+00           0.0000E+00           0.0000E+00           0.0000E+00           0.0000E+00           0.0000E+00           0.0000E+00           0.0000E+00           0.0000E+00           0.0000E+00           0.0000E+00           0.0000E+00
    1.2750          -1.7173E-01          -1.7173E-01          -1.7173E-01           5.5259E-01           5.5259E-01           5.5259E-01          -9.7361E-01          -9.7361E-01          -9.7361E-01           1.5321E-01           0.0000E+00          -5.4216E-01          -9.5614E-01           0.0000E+00          -4.4047E-01          -1.7262E+03           0.0000E+00           0.0000E+00           0.0000E+00           0.0000E+00           0.0000E+00           0.0000E+00           0.0000E+00           0.0000E+00           0.0000E+00           0.0000E+00           0.0000E+00           0.0000E+00           0.0000E+00           0.0000E+00           0.0000E+00           0.0000E+00           0.0000E+00           0.0000E+00           0.0000E+00           0.0000E+00           0.0000E+00
    1.3000          -1.8560E-01          -1.8560E-01          -1.8560E-01           5.2947E-01           5.2947E-01           5.2947E-01          -9.9745E-01          -9.9745E-01          -9.9745E-01           1.2899E-01           0.0000E+00          -5.7284E-01          -1.9047E+00           0.0000E+00          -1.5722E+00          -1.8656E+03           0.0000E+00           0.0000E+00           0.0000E+00           0.0000E+00           0.0000E+00           0.0000E+00           0.0000E+00           0.0000E+00           0.0000E+00           0.0000E+00           0.0000E+00           0.0000E+00           0.0000E+00           0.0000E+00           0.0000E+00           0.0000E+00           0.0000E+00           0.0000E+00           0.0000E+00           0.0000E+00           0.0000E+00
    1.3250          -2.0012E-01          -2.0012E-01          -2.0012E-01           5.0536E-01           5.0536E-01           5.0536E-01          -1.0229E+00          -1.0229E+00          -1.0229E+00           7.0274E-02           0.0000E+00          -5.7569E-01          -1.5387E+00           0.0000E+00           1.3755E+00          -2.0116E+03           0.0000E+00           0.0000E+00           0.0000E+00           0.0000E+00           0.0000E+00           0.0000E+00           0.0000E+00           0.0000E+00           0.0000E+00           0.0000E+00           0.0000E+00           0.0000E+00           0.0000E+00           0.0000E+00           0.0000E+00           0.0000E+00           0.0000E+00           0.0000E+00           0.0000E+00           0.0000E+00           0.0000E+00
    1.3500          -2.1418E-01          -2.1418E-01          -2.1418E-01           4.8044E-01           4.8044E-01           4.8044E-01          -1.0491E+00          -1.0491E+00          -1.0491E+00           7.0663E-02           0.0000E+00          -5.6044E-01           4.0923E-01           0.0000E+00          -1.0728E+00          -2.1529E+03           0.0000E+00           0.0000E+00           0.0000E+00           0.0000E+00           0.0000E+00           0.0000E+00           0.0000E+00           0.0000E+00           0.0000E+00           0.0000E+00           0.0000E+00           0.0000E+00           0.0000E+00           0.0000E+00           0.0000E+00           0.0000E+00           0.0000E+00           0.0000E+00           0.0000E+00           0.0000E+00           0.0000E+00
    1.3750          -2.2867E-01          -2.2867E-01          -2.2867E-01           4.5425E-01           4.5425E-01           4.5425E-01          -1.0739E+00          -1.0739E+00          -1.0739E+00           3.4841E-02           0.0000E+00          -5.9443E-01          -2.9914E+00           0.0000E+00          -1.5211E-01          -2.2986E+03           0.0000E+00           0.0000E+00           0.0000E+00           0.0000E+00           0.0000E+00           0.0000E+00           0.0000E+00           0.0000E+00           0.0000E+00           0.0000E+00           0.0000E+00           0.0000E+00           0.0000E+00           0.0000E+00           0.0000E+00           0.0000E+00           0.0000E+00           0.0000E+00           0.0000E+00           0.0000E+00           0.0000E+00
    1.4000          -2.4316E-01          -2.4316E-01          -2.4316E-01           4.2760E-01           4.2760E-01           4.2760E-01          -1.0979E+00          -1.0979E+00          -1.0979E+00          -1.8552E-02           0.0000E+00          -5.5330E-01          -5.5016E-01           0.0000E+00           2.4712E+00          -2.4442E+03           0.0000E+00           0.0000E+00           0.0000E+00           0.0000E+00           0.0000E+00           0.0000E+00           0.0000E+00           0.0000E+00           0.0000E+00           0.0000E+00           0.0000E+00           0.0000E+00           0.0000E+00           0.0000E+00           0.0000E+00           0.0000E+00           0.0000E+00           0.0000E+00           0.0000E+00           0.0000E+00           0.0000E+00
    1.4250          -2.5635E-01          -2.5635E-01          -2.5635E-01           4.0031E-01           4.0031E-01           4.0031E-01          -1.1205E+00          -1.1205E+00          -1.1205E+00          -7.6756E-03           0.0000E+00          -5.0714E-01           9.1716E-01           0.0000E+00           1.2545E+00          -2.5767E+03           0.0000E+00           0.0000E+00           0.0000E+00           0.0000E+00           0.0000E+00           0.0000E+00           0.0000E+00           0.0000E+00           0.0000E+00           0.0000E+00           0.0000E+00           0.0000E+00           0.0000E+00           0.0000E+00           0.0000E+00           0.0000E+00           0.0000E+00           0.0000E+00           0.0000E+00           0.0000E+00           0.0000E+00
    1.4500          -2.6871E-01          -2.6871E-01          -2.6871E-01           3.7216E-01           3.7216E-01           3.7216E-01          -1.1419E+00          -1.1419E+00          -1.1419E+00           2.4896E-02           0.0000E+00          -4.8573E-01           1.6929E+00           0.0000E+00           2.5754E-01          -2.7010E+03           0.0000E+00           0.0000E+00           0.0000E+00           0.0000E+00           0.0000E+00           0.0000E+00           0.0000E+00           0.0000E+00           0.0000E+00           0.0000E+00           0.0000E+00           0.0000E+00           0.0000E+00           0.0000E+00           0.0000E+00           0.0000E+00           0.0000E+00           0.0000E+00           0.0000E+00           0.0000E+00           0.0000E+00
    1.4750          -2.8094E-01          -2.8094E-01          -2.8094E-01           3.4310E-01           3.4310E-01           3.4310E-01          -1.1626E+00          -1.1626E+00          -1.1626E+00           6.3718E-02           0.0000E+00          -4.9802E-01           1.2236E+00           0.0000E+00          -1.0191E+00          -2.8239E+03           0.0000E+00           0.0000E+00           0.0000E+00           0.0000E+00           0.0000E+00           0.0000E+00           0.0000E+00           0.0000E+00           0.0000E+00           0.0000E+00           0.0000E+00           0.0000E+00           0.0000E+00           0.0000E+00           0.0000E+00           0.0000E+00           0.0000E+00           0.0000E+00           0.0000E+00           0.0000E+00           0.0000E+00
    1.5000          -2.9378E-01          -2.9378E-01          -2.9378E-01           3.1412E-01           3.1412E-01           3.1412E-01          -1.1818E+00          -1.1818E+00          -1.1818E+00           8.7812E-02           0.0000E+00          -5.3299E-01           5.7256E-01           0.0000E+00          -1.9282E+00          -2.9530E+03           0.0000E+00           0.0000E+00           0.0000E+00           0.0000E+00           0.0000E+00           0.0000E+00           0.0000E+00           0.0000E+00           0.0000E+00           0.0000E+00           0.0000E+00           0.0000E+00           0.0000E+00           0.0000E+00           0.0000E+00           0.0000E+00           0.0000E+00           0.0000E+00           0.0000E+00           0.0000E+00           0.0000E+00
    1.5250          -3.0776E-01          -3.0776E-01          -3.0776E-01           2.8618E-01           2.8618E-01           2.8618E-01          -1.1998E+00          -1.1998E+00          -1.1998E+00           7.5100E-02           0.0000E+00          -5.8369E-01          -1.5940E+00           0.0000E+00          -1.4627E+00          -3.0935E+03           0.0000E+00           0.0000E+00           0.0000E+00           0.0000E+00           0.0000E+00           0.0000E+00           0.0000E+00           0.0000E+00           0.0000E+00           0.0000E+00           0.0000E+00           0.0000E+00           0.0000E+00           0.0000E+00           0.0000E+00           0.0000E+00           0.0000E+00           0.0000E+00           0.0000E+00           0.0000E+00           0.0000E+00
    1.5500          -3.2255E-01          -3.2255E-01          -3.2255E-01           2.5832E-01           2.5832E-01           2.5832E-01          -1.2159E+00          -1.2159E+00          -1.2159E+00           3.6335E-02           0.0000E+00          -5.9145E-01          -1.0024E+00           0.0000E+00           4.4989E-01          -3.2422E+03           0.0000E+00           0.0000E+00           0.0000E+00           0.0000E+00           0.0000E+00           0.0000E+00           0.0000E+00           0.0000E+00           0.0000E+00           0.0000E+00           0.0000E+00           0.0000E+00           0.0000E+00           0.0000E+00           0.0000E+00           0.0000E+00           0.0000E+00           0.0000E+00           0.0000E+00           0.0000E+00           0.0000E+00
    1.5750          -3.3718E-01          -3.3718E-01          -3.3718E-01           2.3095E-01           2.3095E-01           2.3095E-01          -1.2300E+00          -1.2300E+00          -1.2300E+00           2.0377E-02           0.0000E+00          -5.7705E-01          -4.2030E-01           0.0000E+00           9.3192E-01          -3.3892E+03           0.0000E+00           0.0000E+00           0.0000E+00           0.0000E+00           0.0000E+00           0.0000E+00           0.0000E+00           0.0000E+00           0.0000E+00           0.0000E+00           0.0000E+00           0.0000E+00           0.0000E+00           0.0000E+00           0.0000E+00           0.0000E+00           0.0000E+00           0.0000E+00           0.0000E+00           0.0000E+00           0.0000E+00
    1.6000          -3.5119E-01          -3.5119E-01          -3.5119E-01           2.0440E-01           2.0440E-01           2.0440E-01          -1.2429E+00          -1.2429E+00          -1.2429E+00           3.9645E-02           0.0000E+00          -5.4242E-01           2.5136E+00           0.0000E+00           1.0117E+00          -3.5301E+03           0.0000E+00           0.0000E+00           0.0000E+00           0.0000E+00           0.0000E+00           0.0000E+00           0.0000E+00           0.0000E+00           0.0000E+00           0.0000E+00           0.0000E+00           0.0000E+00           0.0000E+00           0.0000E+00           0.0000E+00           0.0000E+00           0.0000E+00           0.0000E+00           0.0000E+00           0.0000E+00           0.0000E+00
    1.6250          -3.6491E-01          -3.6491E-01          -3.6491E-01           1.7902E-01           1.7902E-01           1.7902E-01          -1.2550E+00          -1.2550E+00          -1.2550E+00           1.1486E-01           0.0000E+00          -5.7743E-01           1.9379E+00           0.0000E+00          -3.8329E+00          -3.6681E+03           0.0000E+00           0.0000E+00           0.0000E+00           0.0000E+00           0.0000E+00           0.0000E+00           0.0000E+00           0.0000E+00           0.0000E+00           0.0000E+00           0.0000E+00           0.0000E+00           0.0000E+00           0.0000E+00           0.0000E+00           0.0000E+00           0.0000E+00           0.0000E+00           0.0000E+00           0.0000E+00           0.0000E+00
    1.6500          -3.8062E-01          -3.8062E-01          -3.8062E-01           1.5413E-01           1.5413E-01           1.5413E-01          -1.2671E+00          -1.2671E+00          -1.2671E+00           9.8533E-02           0.0000E+00          -6.7292E-01          -2.5647E+00           0.0000E+00          -2.4896E+00          -3.8260E+03           0.0000E+00           0.0000E+00           0.0000E+00           0.0000E+00           0.0000E+00           0.0000E+00           0.0000E+00           0.0000E+00           0.0000E+00           0.0000E+00           0.0000E+00           0.0000E+00           0.0000E+00           0.0000E+00           0.0000E+00           0.0000E+00           0.0000E+00           0.0000E+00           0.0000E+00           0.0000E+00           0.0000E+00
    1.6750          -3.9786E-01          -3.9786E-01          -3.9786E-01           1.2798E-01           1.2798E-01           1.2798E-01          -1.2781E+00          -1.2781E+00          -1.2781E+00           3.9934E-02           0.0000E+00          -6.9548E-01          -1.6670E+00           0.0000E+00          -1.1013E-03          -3.9992E+03           0.0000E+00           0.0000E+00           0.0000E+00           0.0000E+00           0.0000E+00           0.0000E+00           0.0000E+00           0.0000E+00           0.0000E+00           0.0000E+00           0.0000E+00           0.0000E+00           0.0000E+00           0.0000E+00           0.0000E+00           0.0000E+00           0.0000E+00           0.0000E+00           0.0000E+00           0.0000E+00           0.0000E+00
    1.7000          -4.1521E-01          -4.1521E-01          -4.1521E-01           1.0082E-01           1.0082E-01           1.0082E-01          -1.2881E+00          -1.2881E+00          -1.2881E+00           8.6565E-03           0.0000E+00          -6.9091E-01          -9.2474E-01           0.0000E+00           4.3066E-01          -4.1736E+03           0.0000E+00           0.0000E+00           0.0000E+00           0.0000E+00           0.0000E+00           0.0000E+00           0.0000E+00           0.0000E+00           0.0000E+00           0.0000E+00           0.0000E+00           0.0000E+00           0.0000E+00           0.0000E+00           0.0000E+00           0.0000E+00           0.0000E+00           0.0000E+00           0.0000E+00           0.0000E+00           0.0000E+00
    1.7250          -4.3231E-01          -4.3231E-01          -4.3231E-01           7.3573E-02           7.3573E-02           7.3573E-02          -1.2975E+00          -1.2975E+00          -1.2975E+00          -9.3583E-04           0.0000E+00          -6.7719E-01           1.2746E-01           0.0000E+00           4.5068E-01          -4.3455E+03           0.0000E+00           0.0000E+00           0.0000E+00           0.0000E+00           0.0000E+00           0.0000E+00           0.0000E+00           0.0000E+00           0.0000E+00           0.0000E+00           0.0000E+00           0.0000E+00           0.0000E+00           0.0000E+00           0.0000E+00           0.0000E+00           0.0000E+00           0.0000E+00           0.0000E+00           0.0000E+00           0.0000E+00
    1.7500          -4.4913E-01          -4.4913E-01          -4.4913E-01           4.3861E-02           4.3861E-02           4.3861E-02          -1.3073E+00          -1.3073E+00          -1.3073E+00           1.1112E-02           0.0000E+00          -6.6862E-01           1.0400E+00           0.0000E+00           2.7323E-01          -4.5146E+03           0.0000E+00           0.0000E+00           0.0000E+00           0.0000E+00           0.0000E+00           0.0000E+00           0.0000E+00           0.0000E+00           0.0000E+00           0.0000E+00           0.0000E+00           0.0000E+00           0.0000E+00           0.0000E+00           0.0000E+00           0.0000E+00           0.0000E+00           0.0000E+00           0.0000E+00           0.0000E+00           0.0000E+00
    1.7750          -4.6592E-01          -4.6592E-01          -4.6592E-01           1.1686E-02           1.1686E-02           1.1686E-02          -1.3166E+00          -1.3166E+00          -1.3166E+00           5.7041E-02           0.0000E+00          -6.8622E-01           2.0514E+00           0.0000E+00          -2.3255E+00          -4.6834E+03           0.0000E+00           0.0000E+00           0.0000E+00           0.0000E+00           0.0000E+00           0.0000E+00           0.0000E+00           0.0000E+00           0.0000E+00           0.0000E+00           0.0000E+00           0.0000E+00           0.0000E+00           0.0000E+00           0.0000E+00           0.0000E+00           0.0000E+00           0.0000E+00           0.0000E+00           0.0000E+00           0.0000E+00
    1.8000          -4.8408E-01          -4.8408E-01          -4.8408E-01          -2.2843E-02          -2.2843E-02          -2.2843E-02          -1.3262E+00          -1.3262E+00          -1.3262E+00           6.6293E-02           0.0000E+00          -7.7033E-01          -1.5640E+00           0.0000E+00          -3.1785E+00          -4.8659E+03           0.0000E+00           0.0000E+00           0.0000E+00           0.0000E+00           0.0000E+00           0.0000E+00           0.0000E+00           0.0000E+00           0.0000E+00           0.0000E+00           0.0000E+00           0.0000E+00           0.0000E+00           0.0000E+00           0.0000E+00           0.0000E+00           0.0000E+00           0.0000E+00           0.0000E+00           0.0000E+00           0.0000E+00
    1.8250          -5.0401E-01          -5.0401E-01          -5.0401E-01          -6.0354E-02          -6.0354E-02          -6.0354E-02          -1.3380E+00          -1.3380E+00          -1.3380E+00           2.1531E-02           0.0000E+00          -8.1342E-01          -1.1051E+00           0.0000E+00          -8.7611E-01          -5.0662E+03           0.0000E+00           0.0000E+00           0.0000E+00           0.0000E+00           0.0000E+00           0.0000E+00           0.0000E+00           0.0000E+00           0.0000E+00           0.0000E+00           0.0000E+00           0.0000E+00           0.0000E+00           0.0000E+00           0.0000E+00           0.0000E+00           0.0000E+00           0.0000E+00           0.0000E+00           0.0000E+00           0.0000E+00
    1.8500          -5.2475E-01          -5.2475E-01          -5.2475E-01          -9.9713E-02          -9.9713E-02          -9.9713E-02          -1.3513E+00          -1.3513E+00          -1.3513E+00          -4.7218E-04           0.0000E+00          -8.5143E-01          -1.4671E+00           0.0000E+00          -2.0282E+00          -5.2747E+03           0.0000E+00           0.0000E+00           0.0000E+00           0.0000E+00           0.0000E+00           0.0000E+00           0.0000E+00           0.0000E+00           0.0000E+00           0.0000E+00           0.0000E+00           0.0000E+00           0.0000E+00           0.0000E+00           0.0000E+00           0.0000E+00           0.0000E+00           0.0000E+00           0.0000E+00           0.0000E+00           0.0000E+00
    1.8750          -5.4652E-01          -5.4652E-01          -5.4652E-01          -1.3845E-01          -1.3845E-01          -1.3845E-01          -1.3648E+00          -1.3648E+00          -1.3648E+00          -5.2767E-02           0.0000E+00          -8.8205E-01          -1.9966E+00           0.0000E+00          -2.0421E-01          -5.4936E+03           0.0000E+00           0.0000E+00           0.0000E+00           0.0000E+00           0.0000E+00           0.0000E+00           0.0000E+00           0.0000E+00           0.0000E+00           0.0000E+00           0.0000E+00           0.0000E+00           0.0000E+00           0.0000E+00           0.0000E+00           0.0000E+00           0.0000E+00           0.0000E+00           0.0000E+00           0.0000E+00           0.0000E+00
    1.9000          -5.6858E-01          -5.6858E-01          -5.6858E-01          -1.7549E-01          -1.7549E-01          -1.7549E-01          -1.3787E+00          -1.3787E+00          -1.3787E+00          -8.0426E-02           0.0000E+00          -8.8335E-01          -3.8446E-01           0.0000E+00          -3.9687E-01          -5.7152E+03           0.0000E+00           0.0000E+00           0.0000E+00           0.0000E+00           0.0000E+00           0.0000E+00           0.0000E+00           0.0000E+00           0.0000E+00           0.0000E+00           0.0000E+00           0.0000E+00           0.0000E+00           0.0000E+00           0.0000E+00           0.0000E+00           0.0000E+00           0.0000E+00           0.0000E+00           0.0000E+00           0.0000E+00
    1.9250          -5.9094E-01          -5.9094E-01          -5.9094E-01          -2.1283E-01          -2.1283E-01          -2.1283E-01          -1.3930E+00          -1.3930E+00          -1.3930E+00          -8.8008E-02           0.0000E+00          -9.1190E-01          -5.8980E-01           0.0000E+00          -1.9056E+00          -5.9400E+03           0.0000E+00           0.0000E+00           0.0000E+00           0.0000E+00           0.0000E+00           0.0000E+00           0.0000E+00           0.0000E+00           0.0000E+00           0.0000E+00           0.0000E+00           0.0000E+00           0.0000E+00           0.0000E+00           0.0000E+00           0.0000E+00           0.0000E+00           0.0000E+00           0.0000E+00           0.0000E+00           0.0000E+00
    1.9500          -6.1439E-01          -6.1439E-01          -6.1439E-01          -2.5086E-01          -2.5086E-01          -2.5086E-01          -1.4075E+00          -1.4075E+00          -1.4075E+00          -1.2706E-01           0.0000E+00          -9.6279E-01          -2.4491E+00           0.0000E+00          -1.5140E+00          -6.1757E+03           0.0000E+00           0.0000E+00           0.0000E+00           0.0000E+00           0.0000E+00           0.0000E+00           0.0000E+00           0.0000E+00           0.0000E+00           0.0000E+00           0.0000E+00           0.0000E+00           0.0000E+00           0.0000E+00           0.0000E+00           0.0000E+00           0.0000E+00           0.0000E+00           0.0000E+00           0.0000E+00           0.0000E+00
    1.9750          -6.3874E-01          -6.3874E-01          -6.3874E-01          -2.8854E-01          -2.8854E-01          -2.8854E-01          -1.4219E+00          -1.4219E+00          -1.4219E+00          -1.7847E-01           0.0000E+00          -9.8097E-01          -1.2574E+00           0.0000E+00          -6.7605E-01          -6.4205E+03           0.0000E+00           0.0000E+00           0.0000E+00           0.0000E+00           0.0000E+00           0.0000E+00           0.0000E+00           0.0000E+00           0.0000E+00           0.0000E+00           0.0000E+00           0.0000E+00           0.0000E+00           0.0000E+00           0.0000E+00           0.0000E+00           0.0000E+00           0.0000E+00           0.0000E+00           0.0000E+00           0.0000E+00
    2.0000          -6.6368E-01          -6.6368E-01          -6.6368E-01          -3.2404E-01          -3.2404E-01          -3.2404E-01          -1.4361E+00          -1.4361E+00          -1.4361E+00          -2.1847E-01           0.0000E+00          -1.0205E+00          -2.6690E+00           0.0000E+00          -1.9078E+00          -6.6712E+03           0.0000E+00           0.0000E+00           0.0000E+00           0.0000E+00           0.0000E+00           0.0000E+00           0.0000E+00           0.0000E+00           0.0000E+00           0.0000E+00           0.0000E+00           0.0000E+00           0.0000E+00           0.0000E+00           0.0000E+00           0.0000E+00           0.0000E+00           0.0000E+00           0.0000E+00           0.0000E+00           0.0000E+00
    2.0250          -6.8959E-01          -6.8959E-01          -6.8959E-01          -3.5751E-01          -3.5751E-01          -3.5751E-01          -1.4507E+00          -1.4507E+00          -1.4507E+00          -2.9359E-01           0.0000E+00          -1.0450E+00          -2.5958E+00           0.0000E+00          -4.8065E-01          -6.9316E+03           0.0000E+00           0.0000E+00           0.0000E+00           0.0000E+00           0.0000E+00           0.0000E+00           0.0000E+00           0.0000E+00           0.0000E+00           0.0000E+00           0.0000E+00           0.0000E+00           0.0000E+00           0.0000E+00           0.0000E+00           0.0000E+00           0.0000E+00           0.0000E+00           0.0000E+00           0.0000E+00           0.0000E+00
    2.0500          -7.1601E-01          -7.1601E-01          -7.1601E-01          -3.8842E-01          -3.8842E-01          -3.8842E-01          -1.4645E+00          -1.4645E+00          -1.4645E+00          -3.7239E-01           0.0000E+00          -1.0728E+00          -4.7305E+00           0.0000E+00          -9.6862E-01          -7.1972E+03           0.0000E+00           0.0000E+00           0.0000E+00           0.0000E+00           0.0000E+00           0.0000E+00           0.0000E+00           0.0000E+00           0.0000E+00           0.0000E+00           0.0000E+00           0.0000E+00           0.0000E+00           0.0000E+00           0.0000E+00           0.0000E+00           0.0000E+00           0.0000E+00           0.0000E+00           0.0000E+00           0.0000E+00
    2.0750          -7.4260E-01          -7.4260E-01          -7.4260E-01          -4.1727E-01          -4.1727E-01          -4.1727E-01          -1.4777E+00          -1.4777E+00          -1.4777E+00          -4.9333E-01           0.0000E+00          -1.0313E+00          -2.8699E+00           0.0000E+00           3.8399E+00          -7.4644E+03           0.0000E+00           0.0000E+00           0.0000E+00           0.0000E+00           0.0000E+00           0.0000E+00           0.0000E+00           0.0000E+00           0.0000E+00           0.0000E+00           0.0000E+00           0.0000E+00           0.0000E+00           0.0000E+00           0.0000E+00           0.0000E+00           0.0000E+00           0.0000E+00           0.0000E+00           0.0000E+00           0.0000E+00
    2.1000          -7.6749E-01          -7.6749E-01          -7.6749E-01          -4.4441E-01          -4.4441E-01          -4.4441E-01          -1.4905E+00          -1.4905E+00          -1.4905E+00          -5.1036E-01           0.0000E+00          -9.8285E-01          -9.1532E-01           0.0000E+00          -8.8746E-01          -7.7147E+03           0.0000E+00           0.0000E+00           0.0000E+00           0.0000E+00           0.0000E+00           0.0000E+00           0.0000E+00           0.0000E+00           0.0000E+00           0.0000E+00           0.0000E+00           0.0000E+00           0.0000E+00           0.0000E+00           0.0000E+00           0.0000E+00           0.0000E+00           0.0000E+00           0.0000E+00           0.0000E+00           0.0000E+00
    2.1250          -7.9230E-01          -7.9230E-01          -7.9230E-01          -4.7015E-01          -4.7015E-01          -4.7015E-01          -1.5036E+00          -1.5036E+00          -1.5036E+00          -6.0766E-01           0.0000E+00          -9.8379E-01          -5.2531E+00           0.0000E+00           3.0271E+00          -7.9641E+03           0.0000E+00           0.0000E+00           0.0000E+00           0.0000E+00           0.0000E+00           0.0000E+00           0.0000E+00           0.0000E+00           0.0000E+00           0.0000E+00           0.0000E+00           0.0000E+00           0.0000E+00           0.0000E+00           0.0000E+00           0.0000E+00           0.0000E+00           0.0000E+00           0.0000E+00           0.0000E+00           0.0000E+00
    2.1500          -8.1547E-01          -8.1547E-01          -8.1547E-01          -4.9635E-01          -4.9635E-01          -4.9635E-01          -1.5153E+00          -1.5153E+00          -1.5153E+00          -6.6478E-01           0.0000E+00          -8.6539E-01           6.7670E-01           0.0000E+00           4.0329E+00          -8.1969E+03           0.0000E+00           0.0000E+00           0.0000E+00           0.0000E+00           0.0000E+00           0.0000E+00           0.0000E+00           0.0000E+00           0.0000E+00           0.0000E+00           0.0000E+00           0.0000E+00           0.0000E+00           0.0000E+00           0.0000E+00           0.0000E+00           0.0000E+00           0.0000E+00           0.0000E+00           0.0000E+00           0.0000E+00
    2.1750          -8.3628E-01          -8.3628E-01          -8.3628E-01          -5.2288E-01          -5.2288E-01          -5.2288E-01          -1.5245E+00          -1.5245E+00          -1.5245E+00          -6.5369E-01           0.0000E+00          -8.0942E-01          -4.8195E-01           0.0000E+00           1.8474E+00          -8.4061E+03           0.0000E+00           0.0000E+00           0.0000E+00           0.0000E+00           0.0000E+00           0.0000E+00           0.0000E+00           0.0000E+00           0.0000E+00           0.0000E+00           0.0000E+00           0.0000E+00           0.0000E+00           0.0000E+00           0.0000E+00           0.0000E+00           0.0000E+00           0.0000E+00           0.0000E+00           0.0000E+00           0.0000E+00
    2.2000          -8.5576E-01          -8.5576E-01          -8.5576E-01          -5.4869E-01          -5.4869E-01          -5.4869E-01          -1.5322E+00          -1.5322E+00          -1.5322E+00          -6.4483E-01           0.0000E+00          -7.4807E-01           1.7759E+00           0.0000E+00           1.9428E+00          -8.6020E+03           0.0000E+00           0.0000E+00           0.0000E+00           0.0000E+00           0.0000E+00           0.0000E+00           0.0000E+00           0.0000E+00           0.0000E+00           0.0000E+00           0.0000E+00           0.0000E+00           0.0000E+00           0.0000E+00           0.0000E+00           0.0000E+00           0.0000E+00           0.0000E+00           0.0000E+00           0.0000E+00           0.0000E+00
    2.2250          -8.7427E-01          -8.7427E-01          -8.7427E-01          -5.7541E-01          -5.7541E-01          -5.7541E-01          -1.5386E+00          -1.5386E+00          -1.5386E+00          -6.1064E-01           0.0000E+00          -7.4597E-01          -1.5649E-01           0.0000E+00          -9.5256E-01          -8.7880E+03           0.0000E+00           0.0000E+00           0.0000E+00           0.0000E+00           0.0000E+00           0.0000E+00           0.0000E+00           0.0000E+00           0.0000E+00           0.0000E+00           0.0000E+00           0.0000E+00           0.0000E+00           0.0000E+00           0.0000E+00           0.0000E+00           0.0000E+00           0.0000E+00           0.0000E+00           0.0000E+00           0.0000E+00
    2.2500          -8.9301E-01          -8.9301E-01          -8.9301E-01          -6.0340E-01          -6.0340E-01          -6.0340E-01          -1.5433E+00          -1.5433E+00          -1.5433E+00          -6.3973E-01           0.0000E+00          -7.4154E-01          -1.1041E+00           0.0000E+00           1.4717E+00          -8.9763E+03           0.0000E+00           0.0000E+00           0.0000E+00           0.0000E+00           0.0000E+00           0.0000E+00           0.0000E+00           0.0000E+00           0.0000E+00           0.0000E+00           0.0000E+00           0.0000E+00           0.0000E+00           0.0000E+00           0.0000E+00           0.0000E+00           0.0000E+00           0.0000E+00           0.0000E+00           0.0000E+00           0.0000E+00
    2.2750          -9.1102E-01          -9.1102E-01          -9.1102E-01          -6.3281E-01          -6.3281E-01          -6.3281E-01          -1.5467E+00          -1.5467E+00          -1.5467E+00          -6.4184E-01           0.0000E+00          -7.0044E-01           7.5487E-01           0.0000E+00           1.2859E+00          -9.1574E+03           0.0000E+00           0.0000E+00           0.0000E+00           0.0000E+00           0.0000E+00           0.0000E+00           0.0000E+00           0.0000E+00           0.0000E+00           0.0000E+00           0.0000E+00           0.0000E+00           0.0000E+00           0.0000E+00           0.0000E+00           0.0000E+00           0.0000E+00           0.0000E+00           0.0000E+00           0.0000E+00           0.0000E+00
    2.3000          -9.2829E-01          -9.2829E-01          -9.2829E-01          -6.6290E-01          -6.6290E-01          -6.6290E-01          -1.5476E+00          -1.5476E+00          -1.5476E+00          -6.1674E-01           0.0000E+00          -6.8829E-01           9.3277E-01           0.0000E+00          -3.8370E-01          -9.3310E+03           0.0000E+00           0.0000E+00           0.0000E+00           0.0000E+00           0.0000E+00           0.0000E+00           0.0000E+00           0.0000E+00           0.0000E+00           0.0000E+00           0.0000E+00           0.0000E+00           0.0000E+00           0.0000E+00           0.0000E+00           0.0000E+00           0.0000E+00           0.0000E+00           0.0000E+00           0.0000E+00           0.0000E+00
    2.3250          -9.4575E-01          -9.4575E-01          -9.4575E-01          -6.9270E-01          -6.9270E-01          -6.9270E-01          -1.5466E+00          -1.5466E+00          -1.5466E+00          -6.1235E-01           0.0000E+00          -7.1178E-01          -7.3585E-01           0.0000E+00          -1.0814E+00          -9.5065E+03           0.0000E+00           0.0000E+00           0.0000E+00           0.0000E+00           0.0000E+00           0.0000E+00           0.0000E+00           0.0000E+00           0.0000E+00           0.0000E+00           0.0000E+00           0.0000E+00           0.0000E+00           0.0000E+00           0.0000E+00           0.0000E+00           0.0000E+00           0.0000E+00           0.0000E+00           0.0000E+00           0.0000E+00
    2.3500          -9.6378E-01          -9.6378E-01          -9.6378E-01          -7.2220E-01          -7.2220E-01          -7.2220E-01          -1.5448E+00          -1.5448E+00          -1.5448E+00          -6.4487E-01           0.0000E+00          -7.2620E-01          -1.5788E+00           0.0000E+00          -1.6427E-02          -9.6878E+03           0.0000E+00           0.0000E+00           0.0000E+00           0.0000E+00           0.0000E+00           0.0000E+00           0.0000E+00           0.0000E+00           0.0000E+00           0.0000E+00           0.0000E+00           0.0000E+00           0.0000E+00           0.0000E+00           0.0000E+00           0.0000E+00           0.0000E+00           0.0000E+00           0.0000E+00           0.0000E+00           0.0000E+00
    2.3750          -9.8185E-01          -9.8185E-01          -9.8185E-01          -7.5182E-01          -7.5182E-01          -7.5182E-01          -1.5416E+00          -1.5416E+00          -1.5416E+00          -6.8366E-01           0.0000E+00          -7.1553E-01          -1.4548E+00           0.0000E+00           8.2614E-01          -9.8694E+03           0.0000E+00           0.0000E+00           0.0000E+00           0.0000E+00           0.0000E+00           0.0000E+00           0.0000E+00           0.0000E+00           0.0000E+00           0.0000E+00           0.0000E+00           0.0000E+00           0.0000E+00           0.0000E+00           0.0000E+00           0.0000E+00           0.0000E+00           0.0000E+00           0.0000E+00           0.0000E+00           0.0000E+00
    2.4000          -9.9941E-01          -9.9941E-01          -9.9941E-01          -7.8095E-01          -7.8095E-01          -7.8095E-01          -1.5362E+00          -1.5362E+00          -1.5362E+00          -7.1402E-01           0.0000E+00          -6.8662E-01          -8.9150E-01           0.0000E+00           1.4560E+00          -1.0046E+04           0.0000E+00           0.0000E+00           0.0000E+00           0.0000E+00           0.0000E+00           0.0000E+00           0.0000E+00           0.0000E+00           0.0000E+00           0.0000E+00           0.0000E+00           0.0000E+00           0.0000E+00           0.0000E+00           0.0000E+00           0.0000E+00           0.0000E+00           0.0000E+00           0.0000E+00           0.0000E+00           0.0000E+00
    2.4250          -1.0161E+00          -1.0161E+00          -1.0161E+00          -8.0945E-01          -8.0945E-01          -8.0945E-01          -1.5296E+00          -1.5296E+00          -1.5296E+00          -7.2050E-01           0.0000E+00          -6.4793E-01           5.1252E-01           0.0000E+00           1.2996E+00          -1.0214E+04           0.0000E+00           0.0000E+00           0.0000E+00           0.0000E+00           0.0000E+00           0.0000E+00           0.0000E+00           0.0000E+00           0.0000E+00           0.0000E+00           0.0000E+00           0.0000E+00           0.0000E+00           0.0000E+00           0.0000E+00           0.0000E+00           0.0000E+00           0.0000E+00           0.0000E+00           0.0000E+00           0.0000E+00
    2.4500          -1.0321E+00          -1.0321E+00          -1.0321E+00          -8.3696E-01          -8.3696E-01          -8.3696E-01          -1.5217E+00          -1.5217E+00          -1.5217E+00          -7.0382E-01           0.0000E+00          -6.4332E-01           2.5527E-02           0.0000E+00          -9.4954E-01          -1.0374E+04           0.0000E+00           0.0000E+00           0.0000E+00           0.0000E+00           0.0000E+00           0.0000E+00           0.0000E+00           0.0000E+00           0.0000E+00           0.0000E+00           0.0000E+00           0.0000E+00           0.0000E+00           0.0000E+00           0.0000E+00           0.0000E+00           0.0000E+00           0.0000E+00           0.0000E+00           0.0000E+00           0.0000E+00
    2.4750          -1.0485E+00          -1.0485E+00          -1.0485E+00          -8.6243E-01          -8.6243E-01          -8.6243E-01          -1.5121E+00          -1.5121E+00          -1.5121E+00          -7.4139E-01           0.0000E+00          -6.5776E-01          -2.5415E+00           0.0000E+00           7.7464E-01          -1.0539E+04           0.0000E+00           0.0000E+00           0.0000E+00           0.0000E+00           0.0000E+00           0.0000E+00           0.0000E+00           0.0000E+00           0.0000E+00           0.0000E+00           0.0000E+00           0.0000E+00           0.0000E+00           0.0000E+00           0.0000E+00           0.0000E+00           0.0000E+00           0.0000E+00           0.0000E+00           0.0000E+00           0.0000E+00

This output file was closed on 14-Apr-2016 at 09:53:39.

