
These predictions were generated by HydroDyn on 30-Sep-2014 at 09:03:21.

    Time            Wave1Elev            Wave2Elev            Wave3Elev            Wave4Elev            Wave5Elev            Wave6Elev            Wave7Elev            Wave8Elev            Wave9Elev              M2N2Vxi              M2N2Vyi              M2N2Vzi              M2N2Axi              M2N2Ayi              M2N2Azi             M2N2FDxi             M2N2FDyi             M2N2FDzi             M2N2FIxi             M2N2FIyi             M2N2FIzi             M2N5FDxi               J1FDxi               J1FDyi               J1FDzi
   (sec)              INVALID                  (m)              INVALID              INVALID              INVALID              INVALID              INVALID                  (m)              INVALID                (m/s)                (m/s)                (m/s)              (m/s^2)              (m/s^2)              (m/s^2)                (N/m)                (N/m)                (N/m)                (N/m)                (N/m)                (N/m)              INVALID                  (N)                  (N)                  (N)
    0.0000           0.0000E+00           5.4482E-02           0.0000E+00           0.0000E+00           0.0000E+00           0.0000E+00          -0.0000E+00          -5.4373E-01          -0.0000E+00          -8.5263E-03           0.0000E+00           3.2816E-02           6.0705E-02           0.0000E+00          -6.6553E-03           1.1934E-01          -3.6334E-02           5.8773E-02           1.3775E+03           9.8184E+01           6.1348E+02          -0.0000E+00           0.0000E+00           0.0000E+00           0.0000E+00

This output file was closed on 30-Sep-2014 at 09:03:22.

