
These predictions were generated by HydroDyn on 14-Apr-2016 at 09:53:51.

    Time            Wave1Elev
   (sec)                  (m)
    0.0000           7.2559E-04
    0.0073          -1.6590E-04
    0.0146           6.8560E-04
    0.0219           5.0410E-04
    0.0292           1.7561E-04
    0.0364           6.5409E-04
    0.0437          -6.4375E-05
    0.0510           1.4408E-04
    0.0583          -5.4372E-05
    0.0656          -2.5922E-05
    0.0729           2.3563E-04
    0.0802          -2.6593E-04
    0.0875           1.3564E-04
    0.0948          -2.6594E-04
    0.1021           2.0565E-04
    0.1093           2.3406E-04
    0.1166           2.7566E-04
    0.1239           4.8405E-04
    0.1312          -1.2434E-04
    0.1385           3.4404E-04
    0.1458           2.8567E-04
    0.1531           1.2403E-04
    0.1604           5.9567E-04
    0.1677          -3.5980E-05
    0.1750           2.4568E-04
    0.1822          -4.5990E-05
    0.1895          -1.4430E-04
    0.1968           1.8401E-04
    0.2041          -2.5430E-04
    0.2114           2.6400E-04
    0.2187           5.5707E-05
    0.2260           2.7399E-04
    0.2333           1.0571E-04
    0.2406           1.3988E-05
    0.2479           6.4572E-04
    0.2551           2.6398E-04
    0.2624           5.9573E-04
    0.2697           1.7397E-04
    0.2770           1.6574E-04
    0.2843           5.3397E-04
    0.2916          -2.4425E-04
    0.2989           3.1397E-04
    0.3062          -2.6426E-04
    0.3135          -9.6051E-05
    0.3208           4.3576E-04
    0.3281          -7.6061E-05
    0.3353           3.7577E-04
    0.3426          -7.6075E-05
    0.3499           2.4578E-04
    0.3572           3.6393E-04
    0.3645           3.1579E-04
    0.3718           2.1391E-04
    0.3791          -4.1422E-04
    0.3864           2.2392E-04
    0.3937          -1.4421E-04
    0.4009           3.8981E-06
    0.4082          -8.4196E-05
    0.4155          -3.6610E-04
    0.4228           4.0581E-04
    0.4301          -3.2611E-04
    0.4374           1.6581E-04
    0.4447           3.6388E-04
    0.4520          -3.7417E-04
    0.4593           5.6388E-04
    0.4666           2.9583E-04
    0.4738           3.3873E-05
    0.4811           1.6584E-04
    0.4884           1.2386E-04
    0.4957           3.8585E-04
    0.5030           1.8385E-04
    0.5103           2.5587E-04
    0.5176          -6.6153E-05
    0.5249           5.5866E-05
    0.5322          -9.6160E-05
    0.5395          -2.1413E-04
    0.5467           5.0383E-04
    0.5540          -1.5413E-04
    0.5613           1.9382E-04
    0.5686           4.4589E-04
    0.5759          -8.6185E-05
    0.5832           6.5589E-04
    0.5905           3.8070E-06
    0.5978           1.0589E-04
    0.6051           3.2381E-04
    0.6124          -2.3409E-04
    0.6196           1.9380E-04
    0.6269          -3.4089E-05
    0.6342          -2.6209E-05
    0.6415          -2.4408E-04
    0.6488          -2.6622E-04
    0.6561          -9.4071E-05
    0.6634          -5.4622E-04
    0.6707           1.4593E-04
    0.6780          -1.0623E-04
    0.6853           2.4594E-04
    0.6925           2.3376E-04
    0.6998          -5.4405E-04
    0.7071           1.1375E-04
    0.7144          -1.6404E-04
    0.7217           7.3748E-05
    0.7290          -4.0319E-06
    0.7363          -4.7625E-04
    0.7436          -1.0402E-04
    0.7509          -5.9626E-04
    0.7582          -2.8402E-04
    0.7654          -2.2627E-04
    0.7727           1.7599E-04
    0.7800           1.4372E-04
    0.7873          -8.4011E-05
    0.7946           5.9372E-04
    0.8019           1.3600E-04
    0.8092           6.3707E-05
    0.8165          -1.5399E-04
    0.8238          -1.7630E-04
    0.8311           1.9601E-04
    0.8383          -6.7631E-04
    0.8456           2.2602E-04
    0.8529           1.3369E-04
    0.8602          -1.0397E-04
    0.8675           3.1368E-04
    0.8748          -2.8396E-04
    0.8821          -3.6331E-05
    0.8894           1.1604E-04
    0.8967           2.4367E-04
    0.9040           2.9605E-04
    0.9113           7.3664E-05
    0.9185           4.3605E-04
    0.9258          -2.0634E-04
    0.9331           2.7607E-04
    0.9404          -8.6356E-05
    0.9477          -3.7393E-04
    0.9550           2.6364E-04
    0.9623          -2.8391E-04
    0.9696           2.4363E-04
    0.9769          -1.4392E-04
    0.9841          -1.9637E-04
    0.9914           4.6608E-04
    0.9987          -3.2638E-04
    1.0060           9.6084E-05
    1.0133           1.4362E-04
    1.0206           1.1611E-04
    1.0279           3.1360E-04
    1.0352          -3.3887E-05
    1.0425           1.8359E-04
    1.0498          -3.2389E-04
    1.0571          -3.6401E-05
    1.0643          -2.9388E-04
    1.0716          -1.6413E-05
    1.0789           3.2613E-04
    1.0862          -3.8642E-04
    1.0935           3.6614E-04
    1.1008           8.3572E-05
    1.1081           7.6141E-05
    1.1154           7.1356E-04
    1.1227           2.2615E-04
    1.1300           6.3355E-04
    1.1372           1.3615E-04
    1.1445           2.7355E-04
    1.1518           3.7615E-04
    1.1591          -4.6460E-05
    1.1664           1.2616E-04
    1.1737          -3.5647E-04
    1.1810          -2.3832E-05
    1.1883          -3.0648E-04
    1.1956          -3.8242E-06
    1.2028           3.1352E-04
    1.2101          -9.3819E-05
    1.2174           3.6351E-04
    1.2247          -2.6381E-04
    1.2320           3.1350E-04
    1.2393           4.1620E-04
    1.2466          -1.0650E-04
    1.2539           7.1620E-04
    1.2612          -2.4652E-04
    1.2685          -1.0379E-04
    1.2757           2.9347E-04
    1.2830          -9.3779E-05
    1.2903           1.6347E-04
    1.2976          -4.5378E-04
    1.3049          -6.5335E-06
    1.3122           6.6223E-05
    1.3195           2.2346E-04
    1.3268           2.9624E-04
    1.3341          -1.2654E-04
    1.3414           5.1623E-04
    1.3486          -9.6547E-05
    1.3559           4.2625E-04
    1.3632           4.9344E-04
    1.3705           5.6254E-05
    1.3778           5.4344E-04
    1.3851          -2.2374E-04
    1.3924           3.3433E-05
    1.3997           1.3627E-04
    1.4070          -2.3657E-04
    1.4143           1.6276E-05
    1.4215          -9.6589E-05
    1.4288           3.2629E-04
    1.4361           1.1341E-04
    1.4434           2.3628E-04
    1.4507           3.4341E-04
    1.4580           1.7629E-04
    1.4653           5.8340E-04
    1.4726          -2.3688E-05
    1.4799           3.0339E-04
    1.4872           3.2631E-04
    1.4944           3.3918E-06
    1.5017           2.1631E-04
    1.5090          -5.3662E-04
    1.5163           2.6632E-04
    1.5236           2.0337E-04
    1.5309          -2.2368E-04
    1.5382           3.4337E-04
    1.5455           6.3263E-06
    1.5528           3.1336E-04
    1.5601           3.2634E-04
    1.5674           2.8336E-04
    1.5746           2.9635E-04
    1.5819           1.4336E-04
    1.5892           2.5636E-04
    1.5965          -1.9665E-04
    1.6038           8.6354E-05
    1.6111          -1.4665E-04
    1.6184          -1.6363E-04
    1.6257           1.1333E-04
    1.6330          -6.8361E-04
    1.6402           7.3325E-05
    1.6475           1.7638E-04
    1.6548          -9.6671E-05
    1.6621           6.0638E-04
    1.6694           1.2331E-04
    1.6767           4.8639E-04
    1.6840           2.9332E-04
    1.6913           1.3641E-04
    1.6986           1.7330E-04
    1.7059          -6.3589E-05
    1.7131          -2.6702E-05
    1.7204          -3.8359E-04
    1.7277           1.7329E-04
    1.7350           3.6412E-05
    1.7423          -6.7153E-06
    1.7496           2.6424E-05
    1.7569          -5.6711E-05
    1.7642           6.2643E-04
    1.7715           1.9328E-04
    1.7788           2.3644E-04
    1.7860           5.5327E-04
    1.7933          -4.3549E-05
    1.8006           5.0327E-04
    1.8079           1.1645E-04
    1.8152          -1.3674E-04
    1.8225           1.9646E-04
    1.8298          -1.2674E-04
    1.8371           1.0646E-04
    1.8444          -2.8675E-04
    1.8517          -3.4352E-04
    1.8589          -1.2675E-04
    1.8662          -1.9352E-04
    1.8735           1.6324E-04
    1.8808          -3.2352E-04
    1.8881           4.4323E-04
    1.8954           1.8649E-04
    1.9027          -1.1677E-04
    1.9100           3.9650E-04
    1.9173          -3.4677E-04
    1.9246           1.6649E-04
    1.9318          -3.1678E-04
    1.9391          -1.5349E-04
    1.9464          -6.7881E-06
    1.9537          -4.4348E-04
    1.9610           1.3206E-05
    1.9683          -3.4348E-04
    1.9756          -9.6804E-05
    1.9829           1.6653E-04
    1.9902          -1.6812E-05
    1.9975           2.8653E-04
    2.0048          -1.7682E-04
    2.0120           2.2652E-04
    2.0193          -4.6815E-05
    2.0266           1.9654E-04
    2.0339           1.4317E-04
    2.0412          -1.5346E-04
    2.0485           3.0318E-04
    2.0558          -3.5345E-04
    2.0631          -3.2684E-04
    2.0704           1.0656E-04
    2.0776          -2.1684E-04
    2.0849           4.2656E-04
    2.0922          -2.5685E-04
    2.0995          -2.3427E-05
    2.1068           1.0314E-04
    2.1141           3.2658E-04
    2.1214           5.0315E-04
    2.1287           1.4658E-04
    2.1360           2.9313E-04
    2.1433           1.0660E-04
    2.1505           2.2312E-04
    2.1578          -1.8341E-04
    2.1651          -4.0687E-04
    2.1724           2.7660E-04
    2.1797          -5.6687E-04
    2.1870           3.6605E-05
    2.1943           3.1138E-06
    2.2016          -3.3339E-04
    2.2089           4.6311E-04
    2.2162           4.6619E-05
    2.2234           3.1310E-04
    2.2307           3.2663E-04
    2.2380           1.4310E-04
    2.2453           4.6620E-05
    2.2526          -1.8691E-04
    2.2599           1.7664E-04
    2.2672           3.0780E-06
    2.2745           3.4664E-04
    2.2818          -2.9692E-04
    2.2891          -1.5335E-04
    2.2963           5.4307E-04
    2.3036          -3.6332E-04
    2.3109           4.0307E-04
    2.3182           3.2666E-04
    2.3255           1.9306E-04
    2.3328           7.4667E-04
    2.3401           1.4306E-04
    2.3474           6.2667E-04
    2.3547           4.6305E-04
    2.3620           2.4667E-04
    2.3693           6.7306E-04
    2.3765          -3.3273E-06
    2.3838           2.3304E-04
    2.3911          -1.6332E-04
    2.3984           7.3040E-05
    2.4057           6.6687E-05
    2.4130           2.2303E-04
    2.4203           5.6668E-04
    2.4276          -1.8698E-04
    2.4349           5.4669E-04
    2.4421           3.9303E-04
    2.4494           2.9670E-04
    2.4567           8.9299E-04
    2.4640          -1.4329E-04
    2.4713           3.7300E-04
    2.4786          -1.0329E-04
    2.4859          -2.6699E-04
    2.4932           3.6717E-05
    2.5005          -9.7005E-05
    2.5078          -1.3280E-05
    2.5151          -1.1701E-04
    2.5223           1.9673E-04
    2.5296           2.9892E-06
    2.5369           6.7295E-06
    2.5442           4.9298E-04
    2.5515           3.0673E-04
    2.5588           8.0297E-04
    2.5661           4.4675E-04
    2.5734           4.1297E-04
    2.5807           6.7674E-04
    2.5879          -2.3705E-04
    2.5952           5.2674E-04
    2.6025          -7.7046E-05
    2.6098           1.6756E-05
    2.6171           1.7295E-04
    2.6244          -1.3323E-04
    2.6317           5.0294E-04
    2.6390           1.8676E-04
    2.6463           8.2928E-05
    2.6536           1.1677E-04
    2.6608           3.7292E-04
    2.6681           5.3676E-04
    2.6754           2.0292E-04
    2.6827           5.9678E-04
    2.6900           2.4293E-04
    2.6973           4.5678E-04
    2.7046           5.4292E-04
    2.7119          -6.3220E-05
    2.7192           5.0291E-04
    2.7265          -8.3204E-05
    2.7337           2.8291E-04
    2.7410           1.9680E-04
    2.7483          -1.6710E-04
    2.7556           4.4680E-04
    2.7629          -1.1709E-04
    2.7702           2.2681E-04
    2.7775           5.0288E-04
    2.7848           2.8680E-04
    2.7921           5.3287E-04
    2.7994           2.3682E-04
    2.8066           5.1287E-04
    2.8139           9.6819E-05
    2.8212           2.0287E-04
    2.8285          -5.3176E-05
    2.8358          -6.3713E-04
    2.8431           2.6683E-04
    2.8504          -2.7713E-04
    2.8577           2.5684E-04
    2.8650           4.5286E-04
    2.8723          -3.5316E-04
    2.8796           4.9285E-04
    2.8868           1.3685E-04
    2.8941           2.7285E-04
    2.9014           1.0685E-04
    2.9087          -5.7148E-05
    2.9160           2.8684E-04
    2.9233           2.2843E-05
    2.9306           2.8684E-04
    2.9379          -1.0717E-04
    2.9452          -3.3141E-05
    2.9524          -3.2717E-04
    2.9597          -2.7313E-04
    2.9670           2.3282E-04
    2.9743          -2.3313E-04
    2.9816           1.9282E-04
    2.9889          -1.6312E-04
    2.9962           2.8101E-06
    3.0035           7.2688E-04
    3.0108           2.8146E-06
    3.0181           3.6890E-05
    3.0253           1.0281E-04
    3.0326          -3.6311E-04
    3.0399           3.2798E-05
    3.0472          -4.1310E-04
    3.0545           1.2793E-05
    3.0618          -3.4310E-04
    3.0691          -3.0720E-04
    3.0764          -3.0310E-04
    3.0837          -1.9722E-04
    3.0910           1.9690E-04
    3.0982          -1.2721E-04
    3.1055           3.7691E-04
    3.1128          -7.2253E-06
    3.1201          -7.3074E-05
    3.1274           4.7277E-04
    3.1347          -6.5308E-04
    3.1420          -1.4723E-04
    3.1493          -8.3073E-05
    3.1566          -2.9724E-04
    3.1639           2.2693E-04
    3.1711          -4.5725E-04
    3.1784          -1.2306E-04
    3.1857          -3.2725E-04
    3.1930          -1.3306E-04
    3.2003           6.2750E-05
    3.2076           1.1694E-04
    3.2149           1.0274E-04
    3.2222          -8.3051E-05
    3.2295           3.8275E-04
    3.2368           2.1695E-04
    3.2440           1.0273E-04
    3.2513           2.5695E-04
    3.2586          -5.3727E-04
    3.2659          -1.3054E-05
    3.2732          -7.7265E-05
    3.2805          -2.1302E-04
    3.2878           2.3273E-04
    3.2951          -5.0303E-04
    3.3024           1.8273E-04
    3.3097           1.2698E-04
    3.3169           2.2271E-04
    3.3242           1.6979E-05
    3.3315          -7.2962E-06
    3.3388           5.7699E-04
    3.3461          -3.7292E-05
    3.3534           5.1699E-04
    3.3607           1.7270E-04
    3.3680           9.6996E-05
    3.3753           2.4270E-04
    3.3826          -4.5300E-04
    3.3899           6.2683E-05
    3.3971          -3.9299E-04
    3.4044          -1.1731E-04
    3.4117           3.0701E-04
    3.4190          -2.4729E-04
    3.4263           1.3702E-04
    3.4336          -6.7303E-05
    3.4409           1.2703E-04
    3.4482           3.9269E-04
    3.4555           1.9702E-04
    3.4627           1.0269E-04
    3.4700          -1.5297E-04
    3.4773           2.3267E-04
    3.4846          -9.2969E-05
    3.4919           9.2671E-05
    3.4992           1.3704E-04
    3.5065          -4.4733E-04
    3.5138           4.3704E-04
    3.5211          -3.7329E-05
    3.5284           3.7702E-04
    3.5356           4.7265E-04
    3.5429          -1.2942E-05
    3.5502           9.3265E-04
    3.5575           2.3706E-04
    3.5648           2.0264E-04
    3.5721           2.2704E-04
    3.5794          -1.4736E-04
    3.5867           5.1705E-04
    3.5940          -9.7363E-05
    3.6013           2.2705E-04
    3.6085          -2.4737E-04
    3.6158          -1.3295E-04
    3.6231           2.7263E-04
    3.6304           3.7064E-05
    3.6377           2.7262E-04
    3.6450           1.0706E-04
    3.6523           5.6261E-04
    3.6596           5.9707E-04
    3.6669          -1.3739E-04
    3.6742           7.0708E-04
    3.6814          -4.7362E-05
    3.6887           2.9708E-04
    3.6960           1.8261E-04
    3.7033          -1.5291E-04
    3.7106           2.2605E-05
    3.7179          -2.2291E-04
    3.7252           2.5993E-06
    3.7325          -2.9290E-04
    3.7398          -1.7397E-05
    3.7471           1.8710E-04
    3.7543           1.9260E-04
    3.7616           6.1710E-04
    3.7689           1.7260E-04
    3.7762           3.0710E-04
    3.7835           3.0260E-04
    3.7908           1.7112E-05
    3.7981           5.4259E-04
    3.8054          -1.5289E-04
    3.8127           2.6258E-04
    3.8200          -1.4289E-04
    3.8272          -1.2742E-04
    3.8345           1.4712E-04
    3.8418          -3.5741E-04
    3.8491           1.8711E-04
    3.8564           9.2571E-05
    3.8637          -4.2859E-05
    3.8710           2.7257E-04
    3.8783           2.4714E-04
    3.8856           3.2257E-04
    3.8929           3.1714E-04
    3.9002           4.8257E-04
    3.9074          -1.2285E-04
    3.9147           2.5581E-06
    3.9220           3.8715E-04
    3.9293          -2.2744E-04
    3.9366          -6.2853E-05
    3.9439          -1.1744E-04
    3.9512          -1.4285E-04
    3.9585           1.8256E-04
    3.9658          -3.9284E-04
    3.9730           3.5256E-04
    3.9803           2.3716E-04
    3.9876           1.7255E-04
    3.9949           2.7717E-04
    4.0022           2.5497E-06
    4.0095           3.4717E-04
    4.0168           1.1255E-04
    4.0241           2.3717E-04
    4.0314           2.5411E-06
    4.0387          -6.2820E-05
    4.0459          -1.3747E-04
    4.0532          -8.3282E-04
    4.0605          -7.7458E-05
    4.0678          -2.0281E-04
    4.0751           2.5257E-06
    4.0824           3.2718E-04
    4.0897          -1.7747E-04
    4.0970           2.9719E-04
    4.1043           3.1252E-04
    4.1116           1.7188E-05
    4.1189           3.3252E-04
    4.1261           2.6720E-04
    4.1334           3.9251E-04
    4.1407           5.7195E-05
    4.1480          -7.4836E-06
    4.1553          -1.0279E-04
    4.1626           1.1251E-04
    4.1699           2.7721E-04
    4.1772          -4.0745E-04
    4.1845           9.7209E-05
    4.1917          -2.6750E-04
    4.1990           2.0721E-04
    4.2063           4.3250E-04
    4.2136          -2.1277E-04
    4.2209           6.0250E-04
    4.2282           1.7217E-05
    4.2355           3.6249E-04
    4.2428           4.8722E-04
    4.2501          -8.7516E-05
    4.2574           3.1723E-04
    4.2646          -3.6751E-04
    4.2719          -3.1277E-04
    4.2792          -2.4752E-04
    4.2865          -2.3276E-04
    4.2938          -1.7752E-04
    4.3011          -3.5275E-04
    4.3084           1.9248E-04
    4.3157          -3.2759E-05
    4.3230           3.8247E-04
    4.3303           3.4724E-04
    4.3375           2.4776E-06
    4.3448           3.4724E-04
    4.3521          -2.9753E-04
    4.3594          -1.5275E-04
    4.3667           6.2466E-05
    4.3740          -3.6275E-04
    4.3813           1.7246E-04
    4.3886          -3.0275E-04
    4.3959          -3.7536E-05
    4.4032           1.8725E-04
    4.4104           1.2246E-04
    4.4177           3.8727E-04
    4.4250          -2.7543E-05
    4.4323           5.3726E-04
    4.4396           1.7246E-04
    4.4469           3.0727E-04
    4.4542           1.6248E-04
    4.4615          -2.2726E-05
    4.4688           2.0244E-04
    4.4761          -2.5272E-04
    4.4833           1.2243E-04
    4.4906           8.7274E-05
    4.4979          -1.8755E-04
    4.5052           1.7728E-04
    4.5125          -5.3755E-04
    4.5198          -1.4272E-04
    4.5271           1.5244E-04
    4.5344           1.3729E-04
    4.5417           1.7244E-04
    4.5490           6.7287E-05
    4.5562           8.2437E-05
    4.5635          -2.9271E-04
    4.5708          -1.7567E-05
    4.5781          -2.2708E-05
    4.5854          -4.1757E-04
    4.5927          -2.2705E-05
    4.6000          -2.3756E-04
    4.6073           1.5728E-04
    4.6146          -6.7570E-05
    4.6219          -4.2269E-04
    4.6292           1.7242E-04
    4.6364          -5.0265E-04
    4.6437           4.2424E-05
    4.6510          -5.2693E-05
    4.6583           4.2422E-05
    4.6656           5.2731E-04
    4.6729           2.2242E-04
    4.6802           5.2732E-04
    4.6875           1.2422E-05
    4.6948          -1.2686E-05
    4.7020           8.2408E-05
    4.7093          -1.5268E-04
    4.7166           2.3241E-04
    4.7239          -3.2669E-05
    4.7312           4.5241E-04
    4.7385           9.7328E-05
    4.7458           3.3240E-04
    4.7531           8.0733E-04
    4.7604          -6.7531E-05
    4.7677           4.2733E-04
    4.7749           2.9240E-04
    4.7822           4.7734E-04
    4.7895           7.4238E-04
    4.7968          -6.2666E-05
    4.8041           4.1240E-04
    4.8114           2.3734E-04
    4.8187           3.2408E-05
    4.8260           9.7337E-05
    4.8333           1.0240E-04
    4.8406           1.1734E-04
    4.8478          -5.0760E-04
    4.8551           1.4734E-04
    4.8624           2.2383E-05
    4.8697           4.8735E-04
    4.8770           5.6239E-04
    4.8843           7.3582E-06
    4.8916           5.2238E-04
    4.8989          -2.2643E-05
    4.9062           9.2385E-05
    4.9135           3.3734E-04
    4.9207          -2.4762E-04
    4.9280          -2.6340E-06
    4.9353          -2.3762E-04
    4.9426           1.7341E-05
    4.9499           3.2372E-05
    4.9572           9.7352E-05
    4.9645           2.4238E-04
    4.9718          -2.5261E-04
    4.9791           4.6237E-04
    4.9864           1.1736E-04
    4.9936           6.1236E-04
    5.0009           4.0736E-04
    5.0082          -1.9764E-04
    5.0155           3.5736E-04
    5.0228          -7.7645E-05
    5.0301           3.7360E-05
    5.0374           3.7236E-04
    5.0447          -1.4263E-04
    5.0520           4.1235E-04
    5.0593          -1.7263E-04
    5.0665           1.9233E-04
    5.0738           1.0737E-04
    5.0811          -5.7654E-05
    5.0884           4.8737E-04
    5.0957           2.9236E-04
    5.1030           6.1738E-04
    5.1103           3.1235E-04
    5.1176           5.4737E-04
    5.1249           8.2368E-05
    5.1322          -1.9262E-04
    5.1395           4.3234E-04
    5.1467          -3.8263E-04
    5.1540          -1.3767E-04
    5.1613          -2.4263E-04
    5.1686          -1.2767E-04
    5.1759           5.5737E-04
    5.1832          -3.7677E-05
    5.1905           3.7738E-04
    5.1978           6.2331E-05
    5.2051           7.7376E-05
    5.2123           3.7233E-04
    5.2196           1.2739E-04
    5.2269           3.5233E-04
    5.2342           1.9737E-04
    5.2415           2.4232E-04
    5.2488          -1.1260E-04
    5.2561          -1.7769E-04
    5.2634           3.9738E-04
    5.2707          -2.0767E-04
    5.2780           1.3736E-04
    5.2852           2.3113E-06
    5.2925          -1.9260E-04
    5.2998           5.0231E-04
    5.3071          -2.2261E-04
    5.3144           3.1231E-04
    5.3217           2.1739E-04
    5.3290           3.2317E-05
    5.3363           5.0738E-04
    5.3436           1.2297E-05
    5.3509           1.2738E-04
    5.3581          -1.7693E-05
    5.3654          -6.2611E-05
    5.3727          -7.7696E-05
    5.3800          -6.2615E-05
    5.3873           2.7229E-04
    5.3946          -9.2609E-05
    5.4019           4.3226E-04
    5.4092           1.6739E-04
    5.4165          -3.2771E-04
    5.4238           3.3739E-04
    5.4310          -2.0766E-04
    5.4383           3.3740E-04
    5.4456           1.3230E-04
    5.4529          -4.2601E-05
    5.4602          -7.7712E-05
    5.4675          -6.0260E-04
    5.4748          -2.9770E-04
    5.4821          -3.5260E-04
    5.4894          -7.7712E-05
    5.4967          -4.2603E-05
    5.5039          -7.7186E-06
    5.5112           9.7400E-05
    5.5185          -1.6772E-04
    5.5258           4.4737E-04
    5.5331          -3.2771E-04
    5.5404          -4.2598E-05
    5.5477           1.7228E-04
    5.5550          -4.7255E-04
    5.5623           6.2269E-05
    5.5696          -1.1260E-04
    5.5768           2.2281E-05
    5.5841           1.8740E-04
    5.5914          -4.2771E-04
    5.5987          -1.7259E-04
    5.6060          -4.7771E-04
    5.6133          -1.7259E-04
    5.6206          -7.7727E-05
    5.6279           1.4740E-04
    5.6352           5.3227E-04
    5.6425           2.3740E-04
    5.6498           1.7227E-04
    5.6570          -1.3260E-04
    5.6643           3.0227E-04
    5.6716           1.9740E-04
    5.6789          -3.7721E-05
    5.6862           4.8741E-04
    5.6935          -1.1773E-04
    5.7008           8.7410E-05
    5.7081           2.6226E-04
    5.7154          -2.5258E-04
    5.7226           3.9226E-04
    5.7299          -1.7259E-04
    5.7372          -2.1773E-04
    5.7445          -7.2594E-05
    5.7518          -2.7773E-04
    5.7591           1.7413E-05
    5.7664          -2.3773E-04
    5.7737           2.9742E-04
    5.7810          -2.7724E-05
    5.7883           1.2742E-04
    5.7955           1.9227E-04
    5.8028          -2.7259E-04
    5.8101           1.2227E-04
    5.8174          -2.5257E-04
    5.8247          -1.4773E-04
    5.8320           7.7412E-05
    5.8393          -3.7773E-04
    5.8466           4.7419E-05
    5.8539          -4.2773E-04
    5.8612           1.6739E-04
    5.8684           3.0227E-04
    5.8757           1.7432E-05
    5.8830           1.3227E-04
    5.8903           1.3743E-04
    5.8976           3.1227E-04
    5.9049          -9.2569E-05
    5.9122           2.3226E-04
    5.9195          -1.6256E-04
    5.9268          -2.6773E-04
    5.9341           1.0743E-04
    5.9413          -4.8772E-04
    5.9486           2.1744E-04
    5.9559          -8.7742E-05
    5.9632          -3.2569E-05
    5.9705           6.3227E-04
    5.9778          -2.5654E-06
    5.9851           5.7223E-04
    5.9924           3.3744E-04
    5.9997           5.2267E-05
    6.0070           5.0744E-04
    6.0142           8.2297E-05
    6.0215           2.1744E-04
    6.0288          -1.9773E-04
    6.0361          -1.8256E-04
    6.0434           4.2250E-05
    6.0507          -2.2256E-04
    6.0580          -6.7737E-05
    6.0653          -3.1257E-04
    6.0726           1.2226E-04
    6.0799          -5.2562E-05
    6.0871           1.1227E-04
    6.0944           3.3744E-04
    6.1017          -2.4774E-04
    6.1090           3.3744E-04
    6.1163           1.3226E-04
    6.1236          -1.0256E-04
    6.1309           2.5226E-04
    6.1382          -2.3253E-04
    6.1455           2.6226E-04
    6.1528           5.7442E-05
    6.1601          -7.7357E-06
    6.1673           1.6742E-04
    6.1746          -2.8774E-04
    6.1819           6.7443E-05
    6.1892          -3.5773E-04
    6.1965           4.7412E-05
    6.2038          -1.4774E-04
    6.2111           3.1744E-04
    6.2184           7.9227E-04
    6.2257           1.7443E-05
    6.2329           5.0227E-04
    6.2402           1.8744E-04
    6.2475          -1.1773E-04
    6.2548           3.2744E-04
    6.2621          -4.9773E-04
    6.2694           1.2745E-04
    6.2767          -3.1773E-04
    6.2840          -2.2555E-05
    6.2913           5.1224E-04
    6.2986           3.0744E-04
    6.3058           4.6227E-04
    6.3131          -6.2550E-05
    6.3204           4.3224E-04
    6.3277           3.6744E-04
    6.3350           4.8227E-04
    6.3423           5.5744E-04
    6.3496          -7.7692E-05
    6.3569           3.1744E-04
    6.3642          -1.5773E-04
    6.3715           1.7445E-05
    6.3787           3.1227E-04
    6.3860          -3.0255E-04
    6.3933           3.2263E-05
    6.4006          -3.4255E-04
    6.4079           1.7227E-04
    6.4152           1.7745E-04
    6.4225          -1.6773E-04
    6.4298           4.4745E-04
    6.4371          -1.1774E-04
    6.4444           2.9742E-04
    6.4516          -1.5773E-04
    6.4589          -1.8256E-04
    6.4662          -8.7731E-05
    6.4735          -5.3252E-04
    6.4808          -7.7730E-05
    6.4881          -2.9256E-04
    6.4954          -2.1773E-04
    6.5027           5.7429E-05
    6.5100          -1.6773E-04
    6.5173           2.4744E-04
    6.5245          -1.7772E-04
    6.5318           3.5741E-04
    6.5391           6.8227E-04
    6.5464           1.8745E-04
    6.5537           4.9227E-04
    6.5610           2.3745E-04
    6.5683           4.4227E-04
    6.5756          -6.2555E-05
    6.5829           1.6227E-04
    6.5902           1.5745E-04
    6.5974          -3.7716E-05
    6.6047           4.8744E-04
    6.6120          -1.1772E-04
    6.6193           2.9745E-04
    6.6266           4.2289E-05
    6.6339          -2.6255E-04
    6.6412           3.4228E-04
    6.6485           2.1745E-04
    6.6558           3.7227E-04
    6.6631           3.9745E-04
    6.6704          -1.7772E-04
    6.6776           8.7435E-05
    6.6849          -4.2769E-04
    6.6922           2.7435E-05
    6.6995          -1.7723E-05
    6.7068          -1.2256E-04
    6.7141          -2.2773E-04
    6.7214          -1.6255E-04
    6.7287           1.1228E-04
    6.7360          -2.7256E-04
    6.7432           3.9227E-04
    6.7505           9.7456E-05
    6.7578           6.2276E-05
    6.7651           4.5745E-04
    6.7724           6.2288E-05
    6.7797           4.8741E-04
    6.7870           2.2228E-04
    6.7943          -8.2560E-05
    6.8016           5.2228E-04
    6.8089          -1.5251E-04
    6.8161          -7.7713E-05
    6.8234          -2.4256E-04
    6.8307          -6.7722E-05
    6.8380           9.7420E-05
    6.8453          -3.7718E-05
    6.8526           3.4744E-04
    6.8599           1.1228E-04
    6.8672           4.3743E-04
    6.8745           2.0228E-04
    6.8818           1.8743E-04
    6.8890           3.2228E-04
    6.8963          -9.2576E-05
    6.9036           5.7224E-04
    6.9109          -6.2572E-05
    6.9182           2.2841E-06
    6.9255           3.2743E-04
    6.9328          -2.4767E-04
    6.9401           1.3743E-04
    6.9474          -2.6772E-04
    6.9547          -2.0258E-04
    6.9619           1.8226E-04
    6.9692          -2.5257E-04
    6.9765           3.2229E-04
    6.9838           1.4743E-04
    6.9911           4.9227E-04
    6.9984           9.7422E-05
    7.0057           1.3229E-04
    7.0130           4.0742E-04
    7.0203          -3.6771E-04
    7.0276           1.6742E-04
    7.0348          -3.8771E-04
    7.0421          -1.7259E-04
    7.0494           6.2294E-05
    7.0567          -4.3256E-04
    7.0640           4.2229E-04
    7.0713          -2.9260E-04
    7.0786           1.2291E-05
    7.0859           3.3738E-04
    7.0932           2.2289E-05
    7.1005           1.4740E-04
    7.1077          -7.7715E-05
    7.1150           1.9739E-04
    7.1223          -1.9771E-04
    7.1296           1.7405E-05
    7.1369           1.7229E-04
    7.1442          -2.7256E-04
    7.1515           4.6229E-04
    7.1588          -2.9260E-04
    7.1661           1.2292E-05
    7.1734           1.3740E-04
    7.1806          -3.7713E-05
    7.1879           8.2739E-04
    7.1952           1.8230E-04
    7.2025           1.4739E-04
    7.2098           2.6229E-04
    7.2171          -1.1261E-04
    7.2244           3.0230E-04
    7.2317          -7.2618E-05
    7.2390           2.2287E-05
    7.2463          -8.2618E-05
    7.2535          -2.9770E-04
    7.2608          -1.8261E-04
    7.2681          -2.9769E-04
    7.2754           1.5739E-04
    7.2827          -4.0770E-04
    7.2900           9.7383E-05
    7.2973           2.1229E-04
    7.3046           6.7381E-05
    7.3119           6.3230E-04
    7.3192          -1.3261E-04
    7.3264           1.9230E-04
    7.3337           1.0738E-04
    7.3410          -5.2769E-04
    7.3483           7.3805E-06
    7.3556          -5.5768E-04
    7.3629          -1.4265E-04
    7.3702          -2.5767E-04
    7.3775          -1.1263E-04
    7.3848          -7.6917E-06
    7.3921           2.7368E-05
    7.3993           4.2232E-04
    7.4066           2.1738E-04
    7.4139           3.7231E-04
    7.4212           3.9737E-04
    7.4285           9.2319E-05
    7.4358           5.0737E-04
    7.4431          -3.2768E-04
    7.4504           9.7344E-05
    7.4577           1.4232E-04
    7.4650          -1.5263E-04
    7.4722           3.6233E-04
    7.4795          -4.0262E-04
    7.4868           6.2325E-05
    7.4941           1.5737E-04
    7.5014           1.0234E-04
    7.5087           4.7378E-05
    7.5160          -5.7655E-05
    7.5233           4.8737E-04
    7.5306           1.2342E-05
    7.5379           3.9737E-04
    7.5451           3.3234E-04
    7.5524           1.5737E-04
    7.5597           2.4234E-04
    7.5670          -2.5264E-04
    7.5743           5.2331E-05
    7.5816          -1.3263E-04
    7.5889          -1.7764E-04
    7.5962           1.9736E-04
    7.6035          -5.3760E-04
    7.6108           1.2736E-04
    7.6180           2.2357E-05
    7.6253          -1.2264E-04
    7.6326           3.8236E-04
    7.6399          -1.2264E-04
    7.6472           2.1236E-04
    7.6545          -2.3264E-04
    7.6618           1.9236E-04
    7.6691           1.0737E-04
    7.6764          -1.8763E-04
    7.6837          -3.2654E-05
    7.6909          -4.5764E-04
    7.6982           1.6731E-04
    7.7055          -3.1764E-04
    7.7128          -1.5265E-04
    7.7201           4.7237E-04
    7.7274          -4.4259E-04
    7.7347           3.8237E-04
    7.7420           4.7343E-05
    7.7493           2.5237E-04
    7.7566           6.5731E-04
    7.7638          -1.6762E-04
    7.7711           4.7733E-04
    7.7784           3.2378E-05
    7.7857           5.7326E-05
    7.7930           3.2387E-05
    7.8003          -1.7267E-04
    7.8076           9.2382E-05
    7.8149          -4.7267E-04
    7.8222           1.3234E-04
    7.8295          -2.3267E-04
    7.8367           1.2238E-04
    7.8440           2.2732E-04
    7.8513          -7.7598E-05
    7.8586           6.0733E-04
    7.8659           5.2382E-05
    7.8732          -7.2673E-05
    7.8805           4.0235E-04
    7.8878          -6.2686E-05
    7.8951           1.6239E-04
    7.9024          -1.8270E-04
    7.9096          -6.7612E-05
    7.9169          -3.8270E-04
    7.9242          -1.6761E-04
    7.9315           1.4730E-04
    7.9388          -3.5760E-04
    7.9461          -8.2701E-05
    7.9534          -1.1760E-04
    7.9607           3.9730E-04
    7.9680           4.7240E-04
    7.9753          -1.4266E-04
    7.9825           4.1240E-04
    7.9898          -2.4271E-04
    7.9971          -9.7598E-05
    8.0044           2.7296E-05
    8.0117          -3.9759E-04
    8.0190           1.8729E-04
    8.0263          -3.8759E-04
    8.0336           2.7291E-05
    8.0409          -7.7586E-05
    8.0482          -7.2719E-05
    8.0555           6.2419E-05
    8.0627          -2.2272E-04
    8.0700           1.4243E-04
    8.0773           8.7279E-05
    8.0846           4.2242E-04
    8.0919           1.4728E-04
    8.0992           1.5243E-04
    8.1065           7.4727E-04
    8.1138          -6.7463E-05
    8.1211           3.5727E-04
    8.1283           1.3243E-04
    8.1356          -5.1274E-04
    8.1429           5.4243E-04
    8.1502          -5.2741E-05
    8.1575           7.2431E-05
    8.1648           6.7259E-05
    8.1721          -1.1754E-04
    8.1794           3.9726E-04
    8.1867           1.3244E-04
    8.1940           3.6725E-04
    8.2012           3.1245E-04
    8.2085           2.2725E-04
    8.2158           1.9246E-04
    8.2231           1.3725E-04
    8.2304           4.4241E-04
    8.2377          -2.6276E-04
    8.2450           3.1245E-04
    8.2523           7.7233E-05
    8.2596          -3.4754E-04
    8.2669           6.7230E-05
    8.2741          -2.1754E-04
    8.2814           2.2723E-04
    8.2887           3.0247E-04
    8.2960          -5.2720E-05
    8.3033           5.9247E-04
    8.3106           3.3723E-04
    8.3179           5.3247E-04
    8.3252           9.7229E-05
    8.3325           3.3247E-04
    8.3398          -7.2778E-05
    8.3470          -2.4752E-04
    8.3543           2.4716E-04
    8.3616          -1.0752E-04
    8.3689           4.4722E-04
    8.3762           1.2483E-05
    8.3835          -3.5278E-04
    8.3908           2.6249E-04
    8.3981          -1.2779E-05
    8.4054           6.6250E-04
    8.4127           8.7207E-05
    8.4200           1.8249E-04
    8.4272           6.3722E-04
    8.4345           3.2501E-05
    8.4418           5.7199E-05
    8.4491          -3.7749E-04
    8.4564           4.7203E-05
    8.4637          -2.8749E-04
    8.4710          -4.7280E-04
    8.4783          -9.7540E-05
    8.4856          -6.5280E-04
    8.4928           9.2518E-05
    8.5001          -9.2809E-05
    8.5074           2.2521E-05
    8.5147           3.2719E-04
    8.5220          -4.7473E-05
    8.5293           4.6719E-04
    8.5366           1.2597E-05
    8.5439          -1.2817E-05
    8.5512           2.9254E-04
    8.5585          -3.7281E-04
    8.5657           1.2542E-05
    8.5730          -2.0282E-04
    8.5803          -3.3745E-04
    8.5876          -1.1281E-04
    8.5949          -2.7745E-04
    8.6022          -1.1285E-04
    8.6095          -1.3745E-04
    8.6168           3.2718E-04
    8.6241          -8.7447E-05
    8.6314           3.1716E-04
    8.6387           3.8256E-04
    8.6459           1.0716E-04
    8.6532           2.9256E-04
    8.6605          -9.2790E-05
    8.6678          -4.7428E-05
    8.6751           1.6716E-04
    8.6824          -6.2742E-04
    8.6897           3.7159E-05
    8.6970          -3.3742E-04
    8.7043          -2.2848E-05
    8.7115           3.1257E-04
    8.7188          -9.2851E-05
    8.7261           9.2551E-05
    8.7334           6.7142E-05
    8.7407           4.2259E-04
    8.7480           1.4714E-04
    8.7553           8.2594E-05
    8.7626           2.5713E-04
    8.7699          -1.2741E-04
    8.7772           5.8713E-04
    8.7844          -4.2727E-04
    8.7917          -1.4288E-04
    8.7990           8.2601E-05
    8.8063          -4.9289E-04
    8.8136           2.7261E-04
    8.8209          -1.9288E-04
    8.8282          -1.7386E-05
    8.8355           1.8712E-04
    8.8428          -1.7361E-05
    8.8501           2.1712E-04
    8.8574           1.4262E-04
    8.8646           1.8710E-04
    8.8719           1.2262E-04
    8.8792           1.8711E-04
    8.8865           1.9263E-04
    8.8938          -2.8997E-06
    8.9011           4.0263E-04
    8.9084          -1.9282E-04
    8.9157          -1.7370E-05
    8.9230          -2.2917E-05
    8.9302          -5.4737E-04
    8.9375           3.4709E-04
    8.9448          -1.1736E-04
    8.9521           3.5708E-04
    8.9594           3.3265E-04
    8.9667           1.7114E-05
    8.9740           6.8265E-04
    8.9813           1.5708E-04
    8.9886           2.7266E-04
    8.9959           3.7072E-05
    9.0031           6.2651E-05
    9.0104           4.7060E-05
    9.0177           1.2667E-05
    9.0250           1.6705E-04
    9.0323          -2.1729E-04
    9.0396           2.9706E-04
    9.0469           4.2666E-05
    9.0542          -1.2296E-04
    9.0615           3.1266E-04
    9.0688          -7.2948E-05
    9.0761           3.0267E-04
    9.0833           2.6704E-04
    9.0906           5.2703E-05
    9.0979           4.3703E-04
    9.1052          -2.0731E-04
    9.1125           2.0703E-04
    9.1198          -2.4732E-04
    9.1271          -2.0298E-04
    9.1344          -2.7313E-05
    9.1417          -3.1298E-04
    9.1489           1.2263E-04
    9.1562          -1.1298E-04
    9.1635           1.6270E-04
    9.1708           1.7011E-05
    9.1781           6.2708E-05
    9.1854           5.9701E-04
    9.1927           3.2711E-05
    9.2000           6.0700E-04
    9.2073           2.6272E-04
    9.2146          -8.2956E-05
    9.2218           2.5271E-04
    9.2291          -1.6300E-04
    9.2364           1.4272E-04
    9.2437          -2.5301E-04
    9.2510          -1.4728E-04
    9.2583           7.6981E-05
    9.2656          -3.7275E-05
    9.2729           4.8692E-04
    9.2802           2.2274E-04
    9.2875           6.6697E-04
    9.2947           1.2273E-04
    9.3020           2.8697E-04
    9.3093           1.6273E-04
    9.3166          -2.3039E-05
    9.3239           6.1275E-04
    9.3312          -3.4304E-04
    9.3385          -1.3728E-04
    9.3458          -4.3048E-05
    9.3531          -7.5725E-04
    9.3604           1.6942E-05
    9.3676          -4.6725E-04
    9.3749           6.9440E-06
    9.3822           1.9276E-04
    9.3895          -3.0549E-06
    9.3968           2.7273E-04
    9.4041           1.0693E-04
    9.4114           2.9277E-04
    9.4187          -1.6307E-04
    9.4260           7.2770E-05
    9.4333          -3.0743E-06
    9.4405          -5.4722E-04
    9.4478           2.1691E-04
    9.4551          -2.9715E-04
    9.4624          -2.2309E-04
    9.4697           1.8278E-04
    9.4770          -4.5309E-04
    9.4843           5.4280E-04
    9.4916          -1.8310E-04
    9.4989           1.7278E-04
    9.5062           1.0690E-04
    9.5134          -2.5720E-04
    9.5207           2.2682E-04
    9.5280          -1.7719E-04
    9.5353           3.5689E-04
    9.5426          -7.7193E-05
    9.5499           1.7688E-04
    9.5572          -6.7188E-05
    9.5645          -2.8311E-04
    9.5718           4.1282E-04
    9.5791          -3.8302E-04
    9.5863           6.2820E-05
    9.5936           8.6870E-05
    9.6009          -3.2717E-04
    9.6082           6.1686E-04
    9.6155          -1.9716E-04
    9.6228           1.1686E-04
    9.6301           3.4284E-04
    9.6374           1.7688E-04
    9.6447           5.8280E-04
    9.6520          -2.3153E-05
    9.6593           3.6284E-04
    9.6665           7.6847E-05
    9.6738          -1.3714E-04
    9.6811          -1.3163E-05
    9.6884          -2.5714E-04
    9.6957          -1.8317E-04
    9.7030          -5.6709E-04
    9.7103           2.1683E-04
    9.7176          -2.7133E-05
    9.7249          -2.1318E-04
    9.7321           5.0288E-04
    9.7394          -1.5318E-04
    9.7467           1.2288E-04
    9.7540          -5.3179E-05
    9.7613          -2.7118E-05
    9.7686           9.6812E-05
    9.7759          -2.3710E-04
    9.7832          -1.1319E-04
    9.7905          -3.4711E-04
    9.7978          -6.3204E-05
    9.8050           8.2897E-05
    9.8123          -1.5321E-04
    9.8196           2.2898E-05
    9.8269          -1.5319E-04
    9.8342           3.0291E-04
    9.8415           2.6678E-04
    9.8488           1.9291E-04
    9.8561           6.1677E-04
    9.8634           3.2925E-05
    9.8707           6.7677E-04
    9.8780           2.1293E-04
    9.8852          -4.3207E-05
    9.8925           2.0294E-04
    9.8998          -2.5324E-04
    9.9071          -1.7066E-05
    9.9144          -2.3244E-05
    9.9217          -1.3705E-04
    9.9290           1.9675E-04
    9.9363          -1.9705E-04
    9.9436           2.9669E-04
    9.9508           1.8297E-04
    9.9581           4.5674E-04
    9.9654           1.3297E-04
    9.9727           3.0673E-04
    9.9800           5.0297E-04
    9.9873          -6.3265E-05
    9.9946           5.7297E-04
   10.0019          -3.2780E-06
   10.0092          -1.7701E-04
   10.0165           1.2672E-04
   10.0237          -2.8702E-04
   10.0310           2.7671E-04
   10.0383          -2.7013E-05
   10.0456           2.6671E-04
   10.0529           3.0300E-04
   10.0602           8.6704E-05
   10.0675           2.9297E-04
   10.0748          -9.3296E-05
   10.0821           3.6301E-04
   10.0894           3.4670E-04
   10.0966           3.0056E-06
   10.1039           2.8670E-04
   10.1112          -2.4698E-04
   10.1185           2.0668E-04
   10.1258          -3.8697E-04
   10.1331          -1.0336E-04
   10.1404           1.3032E-05
   10.1477          -1.7332E-04
   10.1550           5.7303E-04
   10.1623          -3.3340E-06
   10.1695           1.6303E-04
   10.1768           3.5666E-04
   10.1841          -1.7694E-04
   10.1914           4.9657E-04
   10.1987           1.7307E-04
   10.2060           3.0665E-04
   10.2133           1.6306E-04
   10.2206           1.8665E-04
   10.2279           5.3070E-05
   10.2352          -3.8337E-04
   10.2424           3.3072E-05
   10.2497          -4.7330E-04
   10.2570           6.3009E-05
   10.2643           3.5663E-04
   10.2716          -2.4690E-04
   10.2789           4.7662E-04
   10.2862          -9.6904E-05
   10.2935           2.2662E-04
   10.3008           3.0311E-04
   10.3081          -3.2338E-04
   10.3153           1.0306E-04
   10.3226          -3.9339E-04
   10.3299          -5.6885E-05
   10.3372          -1.5340E-04
   10.3445          -1.7687E-04
   10.3518          -1.3409E-05
   10.3591          -5.9686E-04
   10.3664          -1.4341E-04
   10.3737          -2.5685E-04
   10.3810           1.6586E-05
   10.3882          -9.6859E-05
   10.3955          -2.1343E-04
   10.4028           5.0315E-04
   10.4101          -8.3426E-05
   10.4174           3.1579E-06
   10.4247          -2.3431E-05
   10.4320          -5.4684E-04
   10.4393           2.8646E-04
   10.4466          -3.4683E-04
   10.4539          -4.3445E-05
   10.4611           3.3181E-05
   10.4684          -4.3455E-05
   10.4757           1.3319E-04
   10.4830          -4.1346E-04
   10.4903          -1.1681E-04
   10.4976           1.6650E-04
   10.5049           4.6320E-04
   10.5122           2.1652E-04
   10.5195           1.0320E-04
   10.5268           4.5652E-04
   10.5340          -4.7679E-04
   10.5413           1.9651E-04
   10.5486           1.1321E-04
   10.5559          -1.7346E-04
   10.5632           1.6317E-04
   10.5705          -3.2350E-04
   10.5778          -1.6677E-04
   10.5851          -4.0351E-04
   10.5924          -4.4677E-04
   10.5997           2.7649E-04
   10.6069          -8.6762E-05
   10.6142           2.4647E-04
   10.6215           9.3262E-05
   10.6288          -4.3533E-05
   10.6361           6.3253E-05
   10.6434           4.6467E-05
   10.6507          -5.6739E-05
   10.6580          -2.6355E-04
   10.6653           7.3266E-05
   10.6726          -1.3356E-04
   10.6799          -4.5669E-04
   10.6871           1.1644E-04
   10.6944          -3.3672E-04
   10.7017           1.1643E-04
   10.7090          -6.6714E-05
   10.7163           1.2643E-04
   10.7236           4.6329E-04
   10.7309           6.4180E-06
   10.7382           5.2329E-04
   10.7455           2.5645E-04
   10.7527           1.7330E-04
   10.7600           3.3641E-04
   10.7673           2.3331E-04
   10.7746           2.0640E-04
   10.7819          -3.5668E-04
   10.7892           1.8639E-04
   10.7965          -4.6672E-05
   10.8038           3.2635E-04
   10.8111           4.5333E-04
   10.8184          -1.4362E-04
   10.8256           7.5334E-04
   10.8329           1.9637E-04
   10.8402           2.0334E-04
   10.8475           3.5637E-04
   10.8548          -4.6650E-05
   10.8621           3.9631E-04
   10.8694          -6.5883E-06
   10.8767          -1.3643E-05
   10.8840           2.2336E-04
   10.8913          -1.1365E-04
   10.8986           2.3337E-04
   10.9058          -9.3657E-05
   10.9131           4.3337E-04
   10.9204           2.6333E-05
   10.9277          -8.6600E-05
   10.9350           6.3292E-06
   10.9423          -2.5661E-04
   10.9496           3.5632E-04
   10.9569          -2.0660E-04
   10.9642           6.6313E-05
   10.9714           3.2341E-04
   10.9787          -3.0370E-04
   10.9860           3.1332E-04
   10.9933          -1.9370E-04
   11.0006          -1.6586E-05
   11.0079           4.6288E-05
   11.0152          -3.2658E-04
   11.0225           6.6279E-05
   11.0298           1.2343E-04
   11.0371           3.8628E-04
   11.0443           2.5344E-04
   11.0516           4.7624E-04
   11.0589           3.3344E-04
   11.0662           8.6264E-05
   11.0735           7.0345E-04
   11.0808           1.6254E-05
   11.0881           2.3346E-04
   11.0954           1.7625E-04
   11.1027           1.0345E-04
   11.1100           5.9617E-04
   11.1172          -3.6526E-05
   11.1245           1.7623E-04
   11.1318           1.4347E-04
   11.1391           1.8622E-04
   11.1464           4.6348E-04
   11.1537           2.1622E-04
   11.1610           4.4349E-04
   11.1683           1.4625E-04
   11.1756           8.3499E-05
   11.1829           1.8620E-04
   11.1901           5.3511E-05
   11.1974           4.3620E-04
   11.2047          -2.0650E-04
   11.2120           4.7619E-04
   11.2193          -1.6648E-04
   11.2266          -4.7383E-04
   11.2339           1.7343E-04
   11.2412          -7.1383E-04
   11.2485          -1.4647E-04
   11.2558          -2.2383E-04
   11.2630          -1.2647E-04
   11.2703           1.4616E-04
   11.2776          -3.5645E-04
   11.2849           1.8614E-04
   11.2922          -1.0641E-04
   11.2995           2.4614E-04
   11.3068           3.0355E-04
   11.3141           1.5614E-04
   11.3214          -3.6434E-05
   11.3287          -4.6388E-04
   11.3359           2.9357E-04
   11.3432          -3.3388E-04
   11.3505          -1.8644E-04
   11.3578           5.5601E-04
   11.3651          -1.6642E-04
   11.3724           4.7610E-04
   11.3797           3.3591E-05
   11.3870           1.9609E-04
   11.3943           6.2360E-04
   11.4016           4.6092E-05
   11.4088           4.5361E-04
   11.4161          -1.7384E-04
   11.4234           1.2361E-04
   11.4307           8.6073E-05
   11.4380          -2.5638E-04
   11.4453          -5.3940E-05
   11.4526          -3.2637E-04
   11.4599           1.3606E-04
   11.4672          -1.2636E-04
   11.4745           1.0602E-04
   11.4817           4.6360E-04
   11.4890          -1.9396E-04
   11.4963           6.0366E-04
   11.5036           1.5602E-04
   11.5109          -6.3381E-06
   11.5182           2.3603E-04
   11.5255          -3.3633E-04
   11.5328           3.2602E-04
   11.5401          -2.0626E-04
   11.5474          -1.3398E-04
   11.5546           1.3368E-04
   11.5619          -1.3400E-04
   11.5692          -2.4631E-04
   11.5765          -2.3400E-04
   11.5838           3.0370E-04
   11.5911          -7.4004E-05
   11.5984           3.0365E-04
   11.6057           4.6598E-04
   11.6130          -2.6294E-05
   11.6203           3.9597E-04
   11.6275          -1.3628E-04
   11.6348           1.5980E-05
   11.6421           4.4374E-04
   11.6494           5.9546E-06
   11.6567           4.5368E-04
   11.6640          -3.1395E-04
   11.6713          -1.8625E-04
   11.6786          -6.4051E-05
   11.6859          -4.1625E-04
   11.6932           4.5935E-05
   11.7005          -2.1624E-04
   11.7077           1.5592E-04
   11.7150           7.3771E-05
   11.7223           3.6588E-04
   11.7296           2.5379E-04
   11.7369           1.3592E-04
   11.7442           7.1380E-04
   11.7515          -5.4090E-05
   11.7588           2.8379E-04
   11.7661           2.6589E-04
   11.7733          -2.1619E-04
   11.7806           3.5583E-04
   11.7879          -2.0612E-04
   11.7952          -4.1100E-06
   11.8025           3.3814E-05
   11.8098          -3.8412E-04
   11.8171           3.1384E-04
   11.8244           7.5865E-05
   11.8317           2.0384E-04
   11.8390           1.5586E-04
   11.8462           1.7385E-04
   11.8535           2.7586E-04
   11.8608           1.4385E-04
   11.8681           4.5585E-04
   11.8754          -3.4614E-04
   11.8827           9.5836E-05
   11.8900           7.3878E-05
   11.8973          -2.4417E-04
   11.9046           4.1380E-04
   11.9119          -1.7416E-04
   11.9192           2.6388E-04
   11.9264           3.9581E-04
   11.9337           2.3389E-04
   11.9410           6.1581E-04
   11.9483           1.0391E-04
   11.9556           7.5799E-05
   11.9629           2.4389E-04
   11.9702           4.2577E-04
   11.9775           1.8392E-04
   11.9848           1.8578E-04
   11.9920           2.6393E-04
   11.9993          -5.4224E-05
   12.0066           4.5394E-04
   12.0139           9.5764E-05
   12.0212          -6.0497E-06
   12.0285           5.7569E-04
   12.0358           3.3952E-05
   12.0431           4.6576E-04
   12.0504           4.2396E-04
   12.0577           3.7575E-04
   12.0649           7.0397E-04
   12.0722          -4.2603E-06
   12.0795           3.0398E-04
   12.0868           5.5768E-05
   12.0941          -7.5988E-05
   12.1014           5.7204E-06
   12.1087          -1.8601E-04
   12.1160           3.5713E-05
   12.1233          -1.6600E-04
   12.1306           3.1571E-04
   12.1378          -8.5992E-05
   12.1451           3.5700E-05
   12.1524           2.4398E-04
   12.1597          -3.9432E-04
   12.1670           4.9403E-04
   12.1743           6.5686E-05
   12.1816           1.8404E-04
   12.1889           4.9568E-04
   12.1962          -7.5961E-05
   12.2035           1.0566E-04
   12.2107          -1.4592E-04
   12.2180           2.4565E-04
   12.2253           3.0406E-04
   12.2326          -5.4355E-05
   12.2399           3.8407E-04
   12.2472           1.4564E-04
   12.2545           1.5408E-04
   12.2618          -4.3734E-06
   12.2691           2.7405E-04
   12.2764           5.8557E-04
   12.2836          -5.5909E-05
   12.2909           4.4561E-04
   12.2982           2.2409E-04
   12.3055           4.5600E-05
   12.3128           3.5411E-04
   12.3201          -2.8441E-04
   12.3274           2.4411E-04
   12.3347          -2.1435E-04
   12.3420          -1.5873E-05
   12.3493           3.2558E-04
   12.3565          -4.5868E-05
   12.3638           4.6557E-04
   12.3711           1.5415E-04
   12.3784           2.3556E-04
   12.3857           1.4416E-04
   12.3930           1.1556E-04
   12.4003           1.7415E-04
   12.4076          -4.4435E-06
   12.4149           4.7418E-04
   12.4222          -4.4453E-05
   12.4294           1.6420E-04
   12.4367           2.2553E-04
   12.4440          -2.1581E-04
   12.4513           3.5552E-04
   12.4586          -1.3573E-04
   12.4659           8.5519E-05
   12.4732           3.2421E-04
   12.4805          -3.4503E-05
   12.4878           2.5422E-04
   12.4951          -3.4501E-05
   12.5023           1.8423E-04
   12.5096           2.2549E-04
   12.5169           1.9424E-04
   12.5242           2.7548E-04
   12.5315           4.2421E-06
   12.5388           2.1547E-04
   12.5461          -6.0574E-04
   12.5534          -2.3453E-04
   12.5607          -2.7573E-04
   12.5680          -5.9454E-04
   12.5752          -7.5798E-05
   12.5825          -2.2453E-04
   12.5898           4.1429E-04
   12.5971           3.0544E-04
   12.6044           1.2429E-04
   12.6117           4.5543E-04
   12.6190           2.0430E-04
   12.6263           3.2543E-04
   12.6336          -1.7569E-04
   12.6409          -1.1459E-04
   12.6481          -5.6830E-06
   12.6554          -4.4459E-04
   12.6627           1.4327E-05
   12.6700          -6.8460E-04
   12.6773           1.4434E-04
   12.6846          -2.8461E-04
   12.6919          -1.6565E-04
   12.6992           3.4531E-04
   12.7065          -2.9555E-04
   12.7138           1.1536E-04
   12.7210           2.1436E-04
   12.7283           1.3536E-04
   12.7356           6.5438E-04
   12.7429          -6.4653E-05
   12.7502           7.4387E-05
   12.7575          -3.4466E-04
   12.7648          -3.0561E-04
   12.7721          -2.3467E-04
   12.7794          -2.4560E-04
   12.7867           1.0533E-04
   12.7939          -2.1559E-04
   12.8012          -5.4685E-05
   12.8085          -3.2558E-04
   12.8158          -2.7469E-04
   12.8231           4.3433E-04
   12.8304          -1.7471E-04
   12.8377           4.6444E-04
   12.8450           4.5289E-05
   12.8523           1.1444E-04
   12.8596           4.0529E-04
   12.8668          -1.5554E-04
   12.8741           2.2527E-04
   12.8814          -3.1546E-04
   12.8887          -4.3473E-04
   12.8960          -2.1553E-04
   12.9033          -5.5476E-04
   12.9106           2.0449E-04
   12.9179          -1.4761E-05
   12.9252           3.8450E-04
   12.9325           1.4524E-04
   12.9398           1.4495E-05
   12.9470           1.6520E-04
   12.9543          -1.5489E-05
   12.9616           4.8521E-04
   12.9689          -5.5487E-05
   12.9762          -9.4808E-05
   12.9835          -5.4785E-06
   12.9908          -5.8481E-04
   12.9981           2.5453E-04
   13.0054          -5.3472E-04
   13.0126          -3.1549E-04
   13.0199           1.2517E-04
   13.0272          -1.4545E-04
   13.0345           2.4516E-04
   13.0418          -1.0545E-04
   13.0491           2.4514E-04
   13.0564           1.6456E-04
   13.0637           4.5150E-05
   13.0710           2.9454E-04
   13.0783          -3.4867E-05
   13.0855           4.5458E-04
   13.0928          -1.0489E-04
   13.1001          -2.6541E-04
   13.1074          -2.3489E-04
   13.1147          -3.8540E-04
   13.1220           4.7510E-04
   13.1293          -9.5317E-05
   13.1366           2.2509E-04
   13.1439           3.6461E-04
   13.1512          -9.4919E-05
   13.1584           5.0463E-04
   13.1657           2.5506E-04
   13.1730           5.8463E-04
   13.1803           3.8506E-04
   13.1876           4.1464E-04
   13.1949           3.9505E-04
   13.2022          -4.5353E-05
   13.2095           5.3503E-04
   13.2168           3.4651E-05
   13.2241           2.6504E-04
   13.2313           3.0467E-04
   13.2386          -1.8497E-04
   13.2459           6.2468E-04
   13.2532           8.5076E-05
   13.2605           5.9468E-04
   13.2678           4.7500E-04
   13.2751          -4.5306E-05
   13.2824           6.0499E-04
   13.2897          -2.1530E-04
   13.2970           2.5498E-04
   13.3042           1.8471E-04
   13.3115           1.1498E-04
   13.3188           1.7471E-04
   13.3261          -2.0504E-04
   13.3334           1.4474E-04
   13.3407          -1.1505E-04
   13.3480           3.0474E-04
   13.3553          -1.5060E-05
   13.3626          -2.5251E-05
   13.3699           5.0485E-04
   13.3771          -3.2513E-04
   13.3844           1.6492E-04
   13.3917           1.6476E-04
   13.3990          -2.5088E-05
   13.4063           4.7478E-04
   13.4136          -3.1510E-04
   13.4209           2.2478E-04
   13.4282           5.4891E-05
   13.4355          -5.1931E-06
   13.4428           3.6489E-04
   13.4500          -2.2519E-04
   13.4573           2.7488E-04
   13.4646          -2.9518E-04
   13.4719           1.8487E-04
   13.4792           1.6483E-04
   13.4865           3.8486E-04
   13.4938           8.6477E-04
   13.5011           3.1491E-04
   13.5084           7.8484E-04
   13.5157           3.7484E-04
   13.5229           5.4843E-05
   13.5302           5.0482E-04
   13.5375          -5.5133E-05
   13.5448           4.4481E-04
   13.5521           2.2487E-04
   13.5594           1.8481E-04
   13.5667           2.6488E-04
   13.5740          -2.5521E-04
   13.5813           1.2489E-04
   13.5886           1.4786E-05
   13.5958           2.7490E-04
   13.6031           1.0478E-04
   13.6104           2.2492E-04
   13.6177           6.3473E-04
   13.6250           1.7498E-04
   13.6323           6.4477E-04
   13.6396           1.2493E-04
   13.6469          -1.9524E-04
   13.6542           9.4946E-05
   13.6615          -4.1526E-04
   13.6687           2.9495E-04
   13.6760          -2.6519E-04
   13.6833          -3.5068E-05
   13.6906           2.5472E-04
   13.6979          -6.5030E-05
   13.7052           3.9471E-04
   13.7125          -5.0233E-06
   13.7198          -1.5298E-05
   13.7271           2.2500E-04
   13.7344           2.2470E-04
   13.7416           1.9502E-04
   13.7489          -3.4531E-04
   13.7562          -3.4987E-05
   13.7635          -3.6532E-04
   13.7708          -3.0497E-04
   13.7781           2.4467E-04
   13.7854          -4.5497E-04
   13.7927           2.1466E-04
   13.8000          -2.4923E-05
   13.8073           2.6462E-04
   13.8145           3.0506E-04
   13.8218          -3.2535E-04
   13.8291           1.7507E-04
   13.8364          -9.5366E-05
   13.8437          -1.0493E-04
   13.8510           7.4622E-05
   13.8583           2.4509E-04
   13.8656           2.2463E-04
   13.8729          -1.4491E-04
   13.8802           1.0460E-04
   13.8874          -4.8489E-04
   13.8947          -3.3539E-04
   13.9020           2.5123E-05
   13.9093          -2.9541E-04
   13.9166           4.6513E-04
   13.9239          -8.5352E-05
   13.9312           2.8509E-04
   13.9385           1.9457E-04
   13.9458          -5.0484E-04
   13.9531           7.4555E-05
   13.9604          -4.0485E-04
   13.9676          -1.0545E-04
   13.9749          -5.4833E-05
   13.9822          -5.3540E-04
   13.9895          -3.4485E-04
   13.9968          -5.0547E-04
   14.0041           1.5186E-05
   14.0114          -4.1547E-04
   14.0187          -3.9480E-04
   14.0260          -1.1550E-04
   14.0332          -7.4796E-05
   14.0405           3.4450E-04
   14.0478          -8.4726E-05
   14.0551           3.1449E-04
   14.0624           1.8523E-04
   14.0697          -8.5524E-05
   14.0770           3.8523E-04
   14.0843          -1.2553E-04
   14.0916          -1.2475E-04
   14.0989          -4.0555E-04
   14.1061          -5.7472E-04
   14.1134          -1.0561E-04
   14.1207          -3.2473E-04
   14.1280          -6.5560E-05
   14.1353          -3.9472E-04
   14.1426          -8.5569E-05
   14.1499           8.5291E-05
   14.1572          -2.2558E-04
   14.1645           4.8531E-04
   14.1718          -2.5512E-05
   14.1790           2.3531E-04
   14.1863           3.4402E-05
   14.1936          -2.7468E-04
   14.2009           1.5439E-04
   14.2082          -4.0467E-04
   14.2155           9.4388E-05
   14.2228          -1.2465E-04
   14.2301          -3.7560E-04
   14.2374          -7.4689E-05
   14.2447          -3.8563E-04
   14.2519           3.5355E-05
   14.2592          -2.0565E-04
   14.2665          -1.2462E-04
   14.2738           1.4434E-04
   14.2811           5.5383E-05
   14.2884           2.3432E-04
   14.2957          -4.6451E-04
   14.3030           4.3159E-06
   14.3103          -2.1460E-04
   14.3176          -3.2568E-04
   14.3248           1.4541E-04
   14.3321          -4.5570E-04
   14.3394          -7.4579E-05
   14.3467          -1.5571E-04
   14.3540          -3.1455E-04
   14.3613           1.5428E-04
   14.3686          -6.4557E-05
   14.3759           3.2428E-04
   14.3832           1.8545E-04
   14.3905           4.4258E-05
   14.3977           1.5460E-05
   14.4050           9.4257E-05
   14.4123           2.4545E-04
   14.4196          -1.1572E-04
   14.4269           1.6547E-04
   14.4342          -2.5578E-04
   14.4415          -1.4504E-05
   14.4488           2.5421E-04
   14.4561          -5.3451E-04
   14.4634           4.6420E-04
   14.4706           1.2551E-04
   14.4779           7.4205E-05
   14.4852           5.1552E-04
   14.4925           2.4190E-05
   14.4998           4.5552E-04
   14.5071           1.6418E-04
   14.5144           8.5543E-05
   14.5217           2.5416E-04
   14.5290          -3.3445E-04
   14.5363          -2.2586E-04
   14.5435          -2.2445E-04
   14.5508           1.0415E-04
   14.5581          -2.8443E-04
   14.5654          -2.0586E-04
   14.5727           3.8558E-04
   14.5800          -1.9588E-04
   14.5873           4.6559E-04
   14.5946          -2.2579E-04
   14.6019           2.4554E-04
   14.6092           3.2411E-04
   14.6164          -1.2440E-04
   14.6237           4.4409E-04
   14.6310          -2.5438E-04
   14.6383          -2.5921E-05
   14.6456           3.5641E-05
   14.6529          -4.4593E-04
   14.6602          -1.8439E-04
   14.6675          -6.5935E-05
   14.6748           2.7566E-04
   14.6821           3.4057E-05
   14.6893           2.7566E-04
   14.6966           1.7404E-04
   14.7039           1.7568E-04
   14.7112           8.8403E-04
   14.7185           3.1576E-04
   14.7258           5.9399E-04
   14.7331           5.8570E-04
   14.7404           4.0055E-06
   14.7477           2.5570E-04
   14.7550          -9.5996E-05
   14.7622           2.3571E-04
   14.7695           1.0399E-04
   14.7768          -3.2428E-04
   14.7841           1.3392E-04
   14.7914          -4.0427E-04
   14.7987           3.0397E-04
   14.8060          -7.4249E-05
   14.8133           1.0395E-04
   14.8206           2.6576E-04
   14.8279           1.5395E-04
   14.8351           4.4577E-04
   14.8424           7.3988E-05
   14.8497           2.7575E-04
   14.8570           1.0393E-04
   14.8643          -1.1422E-04
   14.8716           4.6392E-04
   14.8789          -3.9421E-04
   14.8862           7.3905E-05
   14.8935          -1.9419E-04
   14.9008          -1.8610E-04
   14.9080           2.5576E-04
   14.9153          -9.6109E-05
   14.9226           2.3583E-04
   14.9299          -9.6121E-05
   14.9372           2.5835E-05
   14.9445          -2.6132E-05
   14.9518          -2.7414E-04
   14.9591           1.5386E-04
   14.9664          -6.4104E-05
   14.9737           1.2385E-04
   14.9809          -2.1412E-04
   14.9882          -1.1615E-04
   14.9955           4.0589E-04
   15.0028          -1.9617E-04
   15.0101           3.2590E-04
   15.0174           3.8145E-06
   15.0247          -2.9405E-04
   15.0320           5.6370E-04
   15.0393          -7.4076E-05
   15.0466           4.2379E-04
   15.0538           3.5593E-04
   15.0611           3.5379E-04
   15.0684           9.5935E-05
   15.0757          -2.4623E-04
   15.0830           7.5911E-05
   15.0903          -2.0620E-04
   15.0976           2.8595E-04
   15.1049          -7.6250E-05
   15.1122          -2.4403E-04
   15.1195          -3.6262E-05
   15.1267          -1.8402E-04
   15.1340           5.8373E-04
   15.1413          -1.4006E-05
   15.1486           1.7369E-04
   15.1559           6.2593E-04
   15.1632           4.3709E-05
   15.1705           3.8601E-04
   15.1778          -6.6302E-05
   15.1851          -1.0398E-04
   15.1924           2.8369E-04
   15.1996          -3.1397E-04
   15.2069           1.1362E-04
   15.2142          -3.3391E-04
   15.2215           1.8367E-04
   15.2288           1.6605E-04
   15.2361           1.8365E-04
   15.2434           4.6606E-04
   15.2507           7.3644E-05
   15.2580           4.7606E-04
   15.2653          -1.0637E-04
   15.2725           6.0622E-06
   15.2798           1.8362E-04
   15.2871          -2.8391E-04
   15.2944           4.7361E-04
   15.3017           3.6101E-05
   15.3090           1.2360E-04
   15.3163           2.6611E-04
   15.3236          -1.1642E-04
   15.3309           2.3607E-04
   15.3382          -3.6393E-05
   15.3454           1.8613E-04
   15.3527           2.2357E-04
   15.3600           2.6614E-04
   15.3673           4.2355E-04
   15.3746           1.8614E-04
   15.3819           7.2354E-04
   15.3892          -1.9372E-04
   15.3965          -2.6488E-05
   15.4038           2.4618E-04
   15.4111          -2.5648E-04
   15.4183           3.9617E-04
   15.4256          -1.7649E-04
   15.4329          -2.1381E-04
   15.4402          -1.6512E-05
   15.4475          -3.9381E-04
   15.4548           2.5340E-04
   15.4621          -8.3747E-05
   15.4694          -3.6526E-05
   15.4767           2.2621E-04
   15.4840           1.3466E-05
   15.4912           3.3623E-04
   15.4985           1.2346E-04
   15.5058           2.9624E-04
   15.5131          -3.0647E-04
   15.5204          -3.3780E-05
   15.5277           4.3428E-05
   15.5350          -3.2374E-04
   15.5423           4.0342E-04
   15.5496          -5.2374E-04
   15.5569          -2.3659E-04
   15.5641           2.0628E-04
   15.5714          -2.5659E-04
   15.5787           1.9623E-04
   15.5860           3.3387E-05
   15.5933           4.7631E-04
   15.6006           2.3375E-05
   15.6079          -1.5368E-04
   15.6152           3.9337E-04
   15.6225          -7.3670E-05
   15.6298           3.7336E-04
   15.6370          -2.0359E-04
   15.6443          -6.6728E-06
   15.6516          -3.0365E-04
   15.6589          -2.7666E-04
   15.6662           5.0635E-04
   15.6735          -3.6668E-04
   15.6808           3.3637E-04
   15.6881           2.3332E-04
   15.6954          -2.3356E-04
   15.7027           4.9322E-04
   15.7099           3.6398E-05
   15.7172           4.6330E-04
   15.7245           1.5641E-04
   15.7318          -1.0671E-04
   15.7391          -2.3588E-05
   15.7464          -3.1672E-04
   15.7537          -7.3576E-05
   15.7610          -3.1670E-04
   15.7683          -1.3612E-05
   15.7756          -1.5675E-04
   15.7828           2.6442E-05
   15.7901           1.8324E-04
   15.7974          -2.8354E-04
   15.8047           4.7323E-04
   15.8120           1.7647E-04
   15.8193           1.6322E-04
   15.8266           3.9646E-04
   15.8339          -2.8678E-04
   15.8412           3.7649E-04
   15.8485           2.3202E-05
   15.8557          -4.3350E-04
   15.8630          -2.2681E-04
   15.8703          -3.6349E-04
   15.8776           6.3192E-05
   15.8849          -7.3454E-05
   15.8922           1.9318E-04
   15.8995           6.5346E-06
   15.9068           2.8317E-04
   15.9141           7.0655E-04
   15.9214          -1.3684E-04
   15.9286           3.9656E-04
   15.9359           1.6315E-04
   15.9432           1.6591E-05
   15.9505           5.0308E-04
   15.9578          -2.5342E-04
   15.9651           1.8313E-04
   15.9724           2.6600E-05
   15.9797          -6.6886E-05
   15.9870           6.6607E-05
   15.9943          -2.6896E-05
   16.0015           3.3662E-04
   16.0088          -7.6900E-05
   16.0161          -1.0337E-04
   16.0234           7.3089E-05
   16.0307          -1.6335E-04
   16.0380           1.0307E-04
   16.0453          -1.4335E-04
   16.0526           3.7306E-04
   16.0599          -7.3336E-05
   16.0672           1.0306E-04
   16.0744          -7.3323E-05
   16.0817          -5.5696E-04
   16.0890           1.3668E-04
   16.0963          -4.4682E-04
   16.1036          -2.0338E-04
   16.1109          -1.9698E-04
   16.1182          -5.1329E-04
   16.1255           2.3300E-04
   16.1328          -2.3289E-05
   16.1401           3.2300E-04
   16.1473           3.1673E-04
   16.1546           2.9299E-04
   16.1619           3.4673E-04
   16.1692          -3.7009E-05
   16.1765           3.1675E-04
   16.1838          -2.1703E-04
   16.1911           5.6758E-05
   16.1984          -1.3704E-04
   16.2057          -4.5323E-04
   16.2130           3.8294E-04
   16.2203          -3.2303E-04
   16.2275           9.2827E-05
   16.2348           2.8679E-04
   16.2421           8.2928E-05
   16.2494           5.6681E-04
   16.2567           4.2913E-05
   16.2640           3.1681E-04
   16.2713           5.2910E-05
   16.2786          -2.0318E-04
   16.2859           1.7289E-04
   16.2932          -4.0317E-04
   16.3004           2.2883E-05
   16.3077          -4.2316E-04
   16.3150          -2.4712E-04
   16.3223          -2.3145E-05
   16.3296          -2.4713E-04
   16.3369           2.8686E-04
   16.3442          -3.5698E-04
   16.3515           1.5687E-04
   16.3588          -3.7158E-05
   16.3660          -2.9311E-04
   16.3733           3.5284E-04
   16.3806          -1.3310E-04
   16.3879           2.9282E-04
   16.3952           1.8691E-04
   16.4025          -2.9719E-04
   16.4098           1.9692E-04
   16.4171          -9.7201E-05
   16.4244          -1.7307E-04
   16.4317          -4.2721E-04
   16.4389          -1.6306E-04
   16.4462           7.2777E-05
   16.4535          -2.3305E-04
   16.4608           8.2677E-05
   16.4681          -1.4297E-04
   16.4754           2.4276E-04
   16.4827           2.3697E-04
   16.4900           1.3275E-04
   16.4973           2.4699E-04
   16.5046          -2.5727E-04
   16.5118           1.2699E-04
   16.5191          -5.7281E-05
   16.5264           4.6999E-05
   16.5337           3.2271E-04
   16.5410          -1.7298E-04
   16.5483           2.2270E-04
   16.5556           1.6702E-04
   16.5629           2.5269E-04
   16.5702           1.4704E-04
   16.5775           1.1268E-04
   16.5847           2.4701E-04
   16.5920           8.2715E-05
   16.5993           4.9705E-04
   16.6066           9.2656E-05
   16.6139           6.7069E-05
   16.6212           3.8265E-04
   16.6285          -1.5292E-04
   16.6358           3.5263E-04
   16.6431          -7.2911E-05
   16.6504          -3.7738E-04
   16.6577           1.2709E-04
   16.6649          -1.8739E-04
   16.6722           7.1030E-06
   16.6795          -2.7404E-05
   16.6868           2.7712E-04
   16.6941           3.1259E-04
   16.7014           1.4712E-04
   16.7087           2.5255E-04
   16.7160          -1.2277E-04
   16.7233           1.0257E-04
   16.7305          -1.4286E-04
   16.7378           1.0255E-04
   16.7451           2.6716E-04
   16.7524          -2.5745E-04
   16.7597           4.6717E-04
   16.7670          -3.6747E-04
   16.7743          -2.8221E-06
   16.7816           2.7252E-04
   16.7889          -1.2282E-04
   16.7962           4.4252E-04
   16.8034           1.5720E-04
   16.8107           1.6250E-04
   16.8180           3.9721E-04
   16.8253           1.9249E-04
   16.8326           1.7722E-04
   16.8399          -2.7741E-04
   16.8472           2.6724E-04
   16.8545          -1.4753E-04
   16.8618          -1.9276E-04
   16.8691          -1.4754E-04
   16.8763          -4.3275E-04
   16.8836           5.2245E-04
   16.8909          -7.2742E-05
   16.8982          -5.7572E-05
   16.9055           4.2727E-04
   16.9128          -6.7585E-05
   16.9201           6.4727E-04
   16.9274           1.5241E-04
   16.9347          -2.7064E-06
   16.9420           2.2401E-05
   16.9492          -3.2261E-04
   16.9565          -2.0763E-04
   16.9638          -2.2269E-04
   16.9711          -3.7620E-05
   16.9784          -2.5268E-04
   16.9857           1.2366E-05
   16.9930          -3.2666E-05
   17.0003          -3.3764E-04
   17.0076           3.9734E-04
   17.0149          -3.8765E-04
   17.0221           3.3736E-04
   17.0294           2.3233E-04
   17.0367          -3.0263E-04
   17.0440           5.4233E-04
   17.0513          -2.1263E-04
   17.0586           1.1230E-04
   17.0659           2.1739E-04
   17.0732          -2.7756E-04
   17.0805           1.2729E-04
   17.0878          -3.2770E-04
   17.0951          -3.2593E-05
   17.1023          -2.7720E-05
   17.1096           2.7742E-04
   17.1169           3.2284E-05
   17.1242          -2.5660E-06
   17.1315           3.6227E-04
   17.1388           4.7445E-05
   17.1461           5.5225E-04
   17.1534           3.7746E-04
   17.1607           2.2225E-04
   17.1679           7.3747E-04
   17.1752          -1.1776E-04
   17.1825          -1.2521E-05
   17.1898          -2.7777E-05
   17.1971          -3.4243E-04
   17.2044           3.3204E-04
   17.2117          -2.0250E-04
   17.2190          -7.8013E-06
   17.2263          -3.2487E-05
   17.2336          -1.2781E-04
   17.2408          -2.2478E-05
   17.2481          -1.7782E-04
   17.2554           5.0753E-04
   17.2627          -2.7834E-05
   17.2700           4.3754E-04
   17.2773          -1.0784E-04
   17.2846          -1.9245E-04
   17.2919           1.9214E-04
   17.2992          -4.6243E-04
   17.3065           7.2137E-05
   17.3137          -4.6242E-04
   17.3210          -4.6787E-04
   17.3283           5.7448E-05
   17.3356          -6.7883E-05
   17.3429           3.1759E-04
   17.3502           2.6211E-04
   17.3575           5.3760E-04
   17.3648           3.0209E-04
   17.3721           1.2761E-04
   17.3794           2.5208E-04
   17.3866           7.7623E-05
   17.3939           5.0207E-04
   17.4012          -1.8237E-04
   17.4085          -6.7936E-05
   17.4158           8.7640E-05
   17.4231          -2.9795E-04
   17.4304           2.6766E-04
   17.4377           5.2034E-05
   17.4450          -7.2309E-05
   17.4523           5.5187E-04
   17.4596          -2.3232E-04
   17.4668           3.2202E-04
   17.4741           3.3768E-04
   17.4814           4.2201E-04
   17.4887           3.8771E-04
   17.4960           2.4201E-04
   17.5033          -1.2288E-05
   17.5106          -3.3801E-04
   17.5179           5.7730E-05
   17.5252          -1.3803E-04
   17.5325           9.7731E-05
   17.5397          -6.8030E-05
   17.5470          -3.6226E-04
   17.5543           1.3195E-04
   17.5616          -4.6209E-04
   17.5689          -2.6811E-04
   17.5762           1.8776E-04
   17.5835          -3.2807E-04
   17.5908           2.4778E-04
   17.5981          -1.8076E-05
   17.6053           4.7783E-05
   17.6126           3.2192E-04
   17.6199          -1.0221E-04
   17.6272           3.1914E-05
   17.6345          -3.0219E-04
[...]
   25.3400          -1.0318E-03
   25.3473          -1.0285E-03
   25.3546          -1.3018E-03
   25.3619          -1.1785E-03
   25.3692          -1.6618E-03
   25.3765          -9.2852E-04
   25.3838          -1.5018E-03
   25.3911          -1.4585E-03
   25.3984          -7.7199E-04
   25.4056          -1.4783E-03
   25.4129          -8.4197E-04
   25.4202          -7.9850E-04
   25.4275          -1.0618E-03
   25.4348          -6.3849E-04
   25.4421          -1.1918E-03
   25.4494          -6.9849E-04
   25.4567          -1.1218E-03
   25.4640          -1.0185E-03
   25.4713          -1.0818E-03
   25.4785          -1.4585E-03
   25.4858          -1.0118E-03
   25.4931          -1.3985E-03
   25.5004          -1.1518E-03
   25.5077          -1.1685E-03
   25.5150          -1.0718E-03
   25.5223          -5.4862E-04
   25.5296          -9.6171E-04
   25.5369          -4.3863E-04
   25.5442          -9.9182E-04
   25.5514          -8.5848E-04
   25.5587          -4.3182E-04
   25.5660          -1.0785E-03
   25.5733          -8.2182E-04
   25.5806          -1.1585E-03
   25.5879          -1.0218E-03
   25.5952          -9.3848E-04
   25.6025          -1.2218E-03
   25.6098          -8.7847E-04
   25.6171          -1.1118E-03
   25.6243          -5.8846E-04
   25.6316          -1.0318E-03
   25.6389          -7.9853E-04
   25.6462          -6.8185E-04
   25.6535          -1.2183E-03
   25.6608          -5.6182E-04
   25.6681          -1.0085E-03
   25.6754          -1.0018E-03
   25.6827          -7.3846E-04
   25.6900          -1.4318E-03
   25.6973          -1.0285E-03
   25.7045          -1.6118E-03
   25.7118          -1.2085E-03
   25.7191          -1.3018E-03
   25.7264          -1.1084E-03
   25.7337          -7.6182E-04
   25.7410          -1.2185E-03
   25.7483          -9.7183E-04
   25.7556          -1.0585E-03
   25.7629          -7.1191E-04
   25.7701          -7.2844E-04
   25.7774          -1.1117E-03
   25.7847          -6.5845E-04
   25.7920          -1.3918E-03
   25.7993          -9.5845E-04
   25.8066          -8.4183E-04
   25.8139          -1.3984E-03
   25.8212          -8.1183E-04
   25.8285          -1.4084E-03
   25.8358          -9.6183E-04
   25.8430          -8.9845E-04
   25.8503          -1.0818E-03
   25.8576          -6.3844E-04
   25.8649          -9.1184E-04
   25.8722          -6.1845E-04
   25.8795          -8.4183E-04
   25.8868          -6.6849E-04
   25.8941          -7.3181E-04
   25.9014          -1.1083E-03
   25.9087          -6.6184E-04
   25.9159          -1.2484E-03
   25.9232          -7.2184E-04
   25.9305          -5.6844E-04
   25.9378          -9.3183E-04
   25.9451          -2.7843E-04
   25.9524          -9.5184E-04
   25.9597          -7.2843E-04
   25.9670          -7.3183E-04
   25.9743          -1.0384E-03
   25.9816          -2.3184E-04
   25.9888          -7.2843E-04
   25.9961          -4.6184E-04
   26.0034          -8.0844E-04
   26.0107          -9.4181E-04
   26.0180          -1.0084E-03
   26.0253          -1.1018E-03
   26.0326          -5.6842E-04
   26.0399          -1.1718E-03
   26.0472          -4.8842E-04
   26.0545          -6.5184E-04
   26.0617          -6.9843E-04
   26.0690          -1.8446E-06
   26.0763          -7.5842E-04
   26.0836          -5.5185E-04
   26.0909          -3.4843E-04
   26.0982          -8.1185E-04
   26.1055          -3.2842E-04
   26.1128          -8.4185E-04
   26.1201          -3.4842E-04
   26.1274          -4.9180E-04
   26.1346          -5.1842E-04
   26.1419          -4.4187E-04
   26.1492          -4.7841E-04
   26.1565          -2.3185E-04
   26.1638          -7.6842E-04
   26.1711          -3.3185E-04
   26.1784          -7.8408E-05
   26.1857          -1.8520E-06
   26.1930           1.6158E-04
   26.2003          -4.2183E-04
   26.2075           9.1583E-05
   26.2148          -1.2185E-04
   26.2221          -3.7842E-04
   26.2294           5.8150E-05
   26.2367          -7.5841E-04
   26.2440          -7.1849E-05
   26.2513          -2.0838E-04
   26.2586          -2.6184E-04
   26.2659          -1.6844E-04
   26.2732          -2.2185E-04
   26.2804           1.7159E-04
   26.2877          -4.6185E-04
   26.2950           2.1157E-04
   26.3023           1.8815E-04
   26.3096           1.1158E-04
   26.3169           5.1814E-04
   26.3242           9.1578E-05
   26.3315           5.4815E-04
   26.3388           1.1159E-04
   26.3461           6.8142E-05
   26.3533           1.8158E-04
   26.3606          -4.8186E-04
   26.3679           2.8158E-04
   26.3752           6.8195E-05
   26.3825           2.1154E-04
   26.3898           2.1814E-04
   26.3971           1.3158E-04
   26.4044           6.5814E-04
   26.4117           6.1157E-04
   26.4190           8.8813E-04
   26.4262           7.8157E-04
   26.4335           5.1814E-04
   26.4408           8.7158E-04
   26.4481           3.6814E-04
   26.4554           7.4158E-04
   26.4627           2.8814E-04
   26.4700           3.2157E-04
   26.4773           7.0813E-04
   26.4846           1.3158E-04
   26.4919           8.8815E-04
   26.4992           4.1171E-04
   26.5064           7.3805E-04
   26.5137           1.1715E-03
   26.5210           7.0814E-04
   26.5283           1.3016E-03
   26.5356           9.6814E-04
   26.5429           1.2916E-03
   26.5502           9.4814E-04
   26.5575           1.1516E-03
   26.5648           1.1781E-03
   26.5720           8.9157E-04
   26.5793           9.4813E-04
   26.5866           3.7157E-04
   26.5939           1.1481E-03
   26.6012           1.0916E-03
   26.6085           6.4814E-04
   26.6158           1.5016E-03
   26.6231           7.4833E-04
   26.6304           1.4214E-03
   26.6377           1.6181E-03
   26.6449           1.1916E-03
   26.6522           1.4781E-03
   26.6595           1.3316E-03
   26.6668           1.4581E-03
   26.6741           1.2416E-03
   26.6814           9.5814E-04
   26.6887           1.0416E-03
   26.6960           8.6814E-04
   26.7033           1.1516E-03
   26.7106           1.0481E-03
   26.7178           1.2616E-03
   26.7251           1.2681E-03
   26.7324           1.3216E-03
   26.7397           1.8780E-03
   26.7470           1.2217E-03
   26.7543           2.0079E-03
   26.7616           1.8916E-03
   26.7689           1.3681E-03
   26.7762           2.0716E-03
   26.7835           1.5481E-03
   26.7907           1.4816E-03
   26.7980           1.4481E-03
   26.8053           1.4916E-03
   26.8126           1.7881E-03
   26.8199           1.3916E-03
   26.8272           1.7981E-03
   26.8345           1.6816E-03
   26.8418           2.0081E-03
   26.8491           1.6516E-03
   26.8564           1.5781E-03
   26.8636           2.2214E-03
   26.8709           1.2984E-03
   26.8782           1.9414E-03
   26.8855           1.7381E-03
   26.8928           1.5316E-03
   26.9001           2.0581E-03
   26.9074           1.4716E-03
   26.9147           1.5881E-03
   26.9220           1.6216E-03
   26.9293           1.5981E-03
   26.9365           1.8716E-03
   26.9438           1.6781E-03
   26.9511           1.8715E-03
   26.9584           1.8181E-03
   26.9657           2.0516E-03
   26.9730           1.9181E-03
   26.9803           1.7315E-03
   26.9876           2.0281E-03
   26.9949           1.6516E-03
   27.0022           2.1280E-03
   27.0094           1.6216E-03
   27.0167           1.7682E-03
   27.0240           2.1416E-03
   27.0313           1.5281E-03
   27.0386           2.0916E-03
   27.0459           1.8881E-03
   27.0532           1.8515E-03
   27.0605           2.2682E-03
   27.0678           2.1216E-03
   27.0751           2.2482E-03
   27.0823           2.0315E-03
   27.0896           2.2282E-03
   27.0969           2.0315E-03
   27.1042           2.0882E-03
   27.1115           2.0616E-03
   27.1188           1.7682E-03
   27.1261           2.3714E-03
   27.1334           1.5382E-03
   27.1407           1.8615E-03
   27.1480           2.1782E-03
   27.1552           1.5316E-03
   27.1625           2.2282E-03
   27.1698           1.9315E-03
   27.1771           2.0482E-03
   27.1844           2.3316E-03
   27.1917           1.7082E-03
   27.1990           2.4016E-03
   27.2063           2.1082E-03
   27.2136           2.0216E-03
   27.2209           1.8982E-03
   27.2281           1.8015E-03
   27.2354           1.9781E-03
   27.2427           1.4317E-03
   27.2500           1.7281E-03
   27.2573           1.5215E-03
   27.2646           1.9682E-03
   27.2719           2.1315E-03
   27.2792           1.4482E-03
   27.2865           2.4815E-03
   27.2938           2.0082E-03
   27.3011           2.0515E-03
   27.3083           2.1282E-03
   27.3156           1.9215E-03
   27.3229           2.1382E-03
   27.3302           1.7415E-03
   27.3375           2.1482E-03
   27.3448           1.8915E-03
   27.3521           1.9781E-03
   27.3594           1.7716E-03
   27.3667           1.8282E-03
   27.3739           1.9315E-03
   27.3812           1.8782E-03
   27.3885           2.2715E-03
   27.3958           2.1882E-03
   27.4031           1.7915E-03
   27.4104           2.7082E-03
   27.4177           2.1215E-03
   27.4250           2.3382E-03
   27.4323           1.9315E-03
   27.4396           1.3682E-03
   27.4468           1.8015E-03
   27.4541           1.5382E-03
   27.4614           1.8415E-03
   27.4687           1.7482E-03
   27.4760           1.6216E-03
   27.4833           1.5282E-03
   27.4906           1.2416E-03
   27.4979           1.5682E-03
   27.5052           1.4215E-03
   27.5125           1.9482E-03
   27.5197           1.5815E-03
   27.5270           1.6982E-03
   27.5343           2.1215E-03
   27.5416           1.1182E-03
   27.5489           1.7015E-03
   27.5562           1.5382E-03
   27.5635           9.5151E-04
   27.5708           1.7682E-03
   27.5781           1.2215E-03
   27.5854           1.7382E-03
   27.5926           1.3415E-03
   27.5999           1.2282E-03
   27.6072           1.5214E-03
   27.6145           1.1883E-03
   27.6218           1.6915E-03
   27.6291           1.3882E-03
   27.6364           1.7315E-03
   27.6437           1.5182E-03
   27.6510           1.2915E-03
   27.6583           1.3182E-03
   27.6655           9.3150E-04
   27.6728           1.6282E-03
   27.6801           9.1149E-04
   27.6874           9.0819E-04
   27.6947           1.4715E-03
   27.7020           6.4820E-04
   27.7093           1.1215E-03
   27.7166           1.0682E-03
   27.7239           9.9151E-04
   27.7312           1.2581E-03
   27.7385           7.9160E-04
   27.7457           1.1782E-03
   27.7530           1.0715E-03
   27.7603           1.3282E-03
   27.7676           1.0215E-03
   27.7749           5.5821E-04
   27.7822           8.0148E-04
   27.7895           5.5821E-04
   27.7968           9.4147E-04
   27.8041           5.2821E-04
   27.8113           6.5148E-04
   27.8186           1.0682E-03
   27.8259           4.1148E-04
   27.8332           6.7821E-04
   27.8405           3.3147E-04
   27.8478           5.3816E-04
   27.8551           7.1142E-04
   27.8624          -3.1586E-05
   27.8697           6.5147E-04
   27.8770           3.4822E-04
   27.8842           3.3147E-04
   27.8915           4.3822E-04
   27.8988           2.6146E-04
   27.9061           3.9822E-04
   27.9134          -1.8535E-05
   27.9207           5.2823E-04
   27.9280          -2.8541E-05
   27.9353           2.8228E-05
   27.9426           1.8146E-04
   27.9499          -2.1177E-04
   27.9571           5.6146E-04
   27.9644          -7.1603E-05
   27.9717           1.5140E-04
   27.9790           5.5812E-04
   27.9863          -4.4829E-04
   27.9936           3.1824E-04
   28.0009          -3.1854E-04
   28.0082          -1.8177E-04
   28.0155          -1.2855E-04
   28.0228          -4.3176E-04
   28.0300          -4.3855E-04
   28.0373          -5.5175E-04
   28.0446          -3.8855E-04
   28.0519          -6.7175E-04
   28.0592          -4.8856E-04
   28.0665          -2.8175E-04
   28.0738          -3.0856E-04
   28.0811           1.4826E-04
   28.0884          -4.5840E-04
   28.0957          -5.4172E-04
   28.1029          -4.9856E-04
   28.1102          -8.4175E-04
   28.1175          -3.2856E-04
   28.1248          -1.0417E-03
   28.1321          -8.1856E-04
   28.1394          -7.5173E-04
   28.1467          -8.3856E-04
   28.1540          -5.8172E-04
   28.1613          -7.7856E-04
   28.1686          -7.2173E-04
   28.1758          -8.1857E-04
   28.1831          -5.1172E-04
   28.1904          -4.7856E-04
   28.1977          -1.1217E-03
   28.2050          -4.6856E-04
   28.2123          -1.3315E-03
   28.2196          -8.2871E-04
   28.2269          -1.1416E-03
   28.2342          -1.5686E-03
   28.2415          -8.3171E-04
   28.2487          -1.2686E-03
   28.2560          -8.5172E-04
   28.2633          -1.0186E-03
   28.2706          -1.1917E-03
   28.2779          -9.9858E-04
   28.2852          -1.4917E-03
   28.2925          -9.5857E-04
   28.2998          -1.1817E-03
   28.3071          -1.3586E-03
   28.3144          -1.3117E-03
   28.3216          -1.6986E-03
   28.3289          -1.3417E-03
   28.3362          -1.6785E-03
   28.3435          -1.2718E-03
   28.3508          -1.4585E-03
   28.3581          -2.0317E-03
   28.3654          -1.2786E-03
   28.3727          -1.8517E-03
   28.3800          -1.3286E-03
   28.3873          -1.6617E-03
   28.3945          -1.6786E-03
   28.4018          -1.5817E-03
   28.4091          -2.0986E-03
   28.4164          -1.5117E-03
   28.4237          -1.6286E-03
   28.4310          -2.0017E-03
   28.4383          -1.9486E-03
   28.4456          -2.3817E-03
   28.4529          -2.2486E-03
   28.4602          -2.5816E-03
   28.4674          -2.0088E-03
   28.4747          -2.4316E-03
   28.4820          -2.3986E-03
   28.4893          -2.0717E-03
   28.4966          -2.4686E-03
   28.5039          -1.5217E-03
   28.5112          -1.8186E-03
   28.5185          -2.2017E-03
   28.5258          -1.5786E-03
   28.5331          -2.1317E-03
   28.5404          -1.9986E-03
   28.5476          -2.3216E-03
   28.5549          -2.2986E-03
   28.5622          -2.1216E-03
   28.5695          -2.4886E-03
   28.5768          -2.4717E-03
   28.5841          -2.6386E-03
   28.5914          -2.0118E-03
   28.5987          -2.3685E-03
   28.6060          -2.1116E-03
   28.6132          -1.8586E-03
   28.6205          -2.5016E-03
   28.6278          -1.8786E-03
   28.6351          -2.2616E-03
   28.6424          -2.3686E-03
   28.6497          -2.1416E-03
   28.6570          -2.4886E-03
   28.6643          -2.1316E-03
   28.6716          -2.6786E-03
   28.6789          -2.6016E-03
   28.6861          -2.5186E-03
   28.6934          -2.7916E-03
   28.7007          -2.4587E-03
   28.7080          -2.6916E-03
   28.7153          -2.3787E-03
   28.7226          -2.5316E-03
   28.7299          -2.5386E-03
   28.7372          -2.3216E-03
   28.7445          -2.3887E-03
   28.7518          -1.8916E-03
   28.7590          -2.4787E-03
   28.7663          -2.3616E-03
   28.7736          -2.3887E-03
   28.7809          -3.0516E-03
   28.7882          -2.3987E-03
   28.7955          -2.9916E-03
   28.8028          -2.8787E-03
   28.8101          -2.5816E-03
   28.8174          -2.4487E-03
   28.8247          -1.9617E-03
   28.8319          -2.2986E-03
   28.8392          -1.9617E-03
   28.8465          -2.2287E-03
   28.8538          -2.1416E-03
   28.8611          -2.1487E-03
   28.8684          -2.1716E-03
   28.8757          -1.8987E-03
   28.8830          -2.5716E-03
   28.8903          -2.5087E-03
   28.8976          -2.2316E-03
   28.9048          -2.5087E-03
   28.9121          -1.8616E-03
   28.9194          -2.3887E-03
   28.9267          -2.0616E-03
   28.9340          -1.9787E-03
   28.9413          -2.2016E-03
   28.9486          -1.9888E-03
   28.9559          -2.3215E-03
   28.9632          -1.9588E-03
   28.9705          -1.8216E-03
   28.9777          -2.1587E-03
   28.9850          -2.2616E-03
   28.9923          -2.3887E-03
   28.9996          -2.0916E-03
   29.0069          -2.5387E-03
   29.0142          -2.2216E-03
   29.0215          -2.1487E-03
   29.0288          -2.3116E-03
   29.0361          -1.5987E-03
   29.0434          -2.2716E-03
   29.0506          -1.6287E-03
   29.0579          -1.5915E-03
   29.0652          -1.8487E-03
   29.0725          -1.4317E-03
   29.0798          -1.7687E-03
   29.0871          -1.6316E-03
   29.0944          -1.8288E-03
   29.1017          -1.9815E-03
   29.1090          -1.9288E-03
   29.1163          -1.9815E-03
   29.1235          -1.4488E-03
   29.1308          -1.7015E-03
   29.1381          -1.3388E-03
   29.1454          -1.4815E-03
   29.1527          -1.6888E-03
   29.1600          -1.3215E-03
   29.1673          -1.5488E-03
   29.1746          -7.6153E-04
   29.1819          -1.0488E-03
   29.1892          -1.4114E-03
   29.1964          -8.4893E-04
   29.2037          -1.5713E-03
   29.2110          -1.0689E-03
   29.2183          -1.2015E-03
   29.2256          -1.2188E-03
   29.2329          -1.2115E-03
   29.2402          -1.5488E-03
   29.2475          -1.1715E-03
   29.2548          -1.5788E-03
   29.2621          -1.1215E-03
   29.2693          -9.3880E-04
   29.2766          -1.1515E-03
   29.2839          -7.2881E-04
   29.2912          -1.0015E-03
   29.2985          -3.6882E-04
   29.3058          -8.4151E-04
   29.3131          -8.8881E-04
   29.3204          -3.1164E-04
   29.3277          -1.1786E-03
   29.3350          -5.8150E-04
   29.3422          -1.0788E-03
   29.3495          -8.8149E-04
   29.3568          -5.5883E-04
   29.3641          -1.0515E-03
   29.3714          -5.1884E-04
   29.3787          -9.4149E-04
   29.3860          -4.3884E-04
   29.3933          -1.7148E-04
   29.4006          -7.8844E-05
   29.4079          -7.1477E-05
   29.4151          -6.7885E-04
   29.4224          -1.7147E-04
   29.4297          -4.4885E-04
   29.4370          -3.2150E-04
   29.4443          -1.6890E-04
   29.4516          -5.6137E-04
   29.4589          -1.2886E-04
   29.4662          -5.9146E-04
   29.4735          -7.8866E-05
   29.4808           2.4854E-04
   29.4880          -5.8872E-05
   29.4953           4.5854E-04
   29.5026          -1.0888E-04
   29.5099           2.1855E-04
   29.5172           1.7112E-04
   29.5245           3.8547E-05
   29.5318           3.6113E-04
   29.5391          -1.5144E-04
   29.5464           3.5111E-04
   29.5537          -2.7144E-04
   29.5609           2.5097E-04
   29.5682           1.1860E-04
   29.5755          -3.1878E-04
   29.5828           6.0857E-04
   29.5901          -1.1890E-04
   29.5974           4.6858E-04
   29.6047           7.2110E-04
   29.6120           2.4858E-04
   29.6193           7.9108E-04
   29.6266           4.3859E-04
   29.6338           4.9109E-04
   29.6411           6.8858E-04
   29.6484           6.6109E-04
   29.6557           7.0858E-04
   29.6630           5.2108E-04
   29.6703           8.6860E-04
   29.6776           1.7127E-04
   29.6849           4.0854E-04
   29.6922           4.8106E-04
   29.6995           3.1864E-04
   29.7067           1.1711E-03
   29.7140           8.0861E-04
   29.7213           1.1811E-03
   29.7286           1.1986E-03
   29.7359           9.6107E-04

This output file was closed on 14-Apr-2016 at 09:53:55.

