
These predictions were generated by HydroDyn on 11-Mar-2015 at 10:45:45.

    Time            Wave1Elev            Wave2Elev            Wave3Elev            Wave4Elev            Wave5Elev            Wave6Elev            Wave7Elev            Wave8Elev            Wave9Elev             WavesFxi             WavesFyi             WavesFzi             WavesMxi             WavesMyi             WavesMzi              M2N2Vxi              M2N2Vyi              M2N2Vzi              M2N2Axi              M2N2Ayi              M2N2Azi             M2N2FDxi             M2N2FDyi             M2N2FDzi             M2N2FIxi             M2N2FIyi             M2N2FIzi             M2N5FDxi               J1FDxi               J1FDyi               J1FDzi
   (sec)                  (m)                  (m)                  (m)                  (m)                  (m)                  (m)                  (m)                  (m)                  (m)                  (N)                  (N)                  (N)                (N·m)                (N·m)                (N·m)                (m/s)                (m/s)                (m/s)              (m/s^2)              (m/s^2)              (m/s^2)                (N/m)                (N/m)                (N/m)                (N/m)                (N/m)                (N/m)              INVALID                  (N)                  (N)                  (N)
    0.0000           4.2194E-01           4.2194E-01           4.2194E-01           3.4515E-01           3.4515E-01           3.4515E-01           3.2012E-01           3.2012E-01           3.2012E-01           0.0000E+00           0.0000E+00           0.0000E+00           0.0000E+00           0.0000E+00           0.0000E+00           7.2806E-02           0.0000E+00          -3.6516E-02          -5.6187E-02           0.0000E+00          -4.6822E-02           2.2421E+00           3.3073E-01           9.8057E-01          -1.8435E+03           6.1267E+01          -8.4369E+02           0.0000E+00           0.0000E+00           0.0000E+00           0.0000E+00

This output file was closed on 11-Mar-2015 at 10:45:45.

