
This summary file was generated by HydroDyn v2.02.00a-adp on 30-Sep-2014 at 08:54:26.




Volume Calculations(m^3)
------------------------
  Structure Volume     :    2.18789E+03
  Submerged Volume     :    1.76823E+03
  Marine Growth Volume :    4.93132E+00
  Ballasted Volume     :    5.04301E+02
              NOTE: Structure, Submerged and Marine Growth volumes are based on members not modelled with WAMIT
                    Ballasted volume is computed from all members which are marked as filled in the HydroDyn input file, regardless of PropWAMIT flag



Buoyancy loads summed about ( 0.0, 0.0, 0.0 )
---------------------------------------------
                                BuoyFxi               BuoyFyi               BuoyFzi               BuoyMxi               BuoyMyi               BuoyMzi 
                                  (N)                   (N)                   (N)                  (N-m)                 (N-m)                 (N-m)  
 External:                  8.237362E+00          7.903576E+00         -1.781522E+06          7.250812E+01         -8.035078E+01          6.198883E-01
 Internal:                  4.139066E+05         -1.544799E+06         -7.697882E+05         -5.466158E+07         -1.464578E+07         -3.337860E-01
 Total   :                  4.139149E+05         -1.544791E+06         -2.551310E+06         -5.466151E+07         -1.464586E+07          2.861023E-01
              NOTE: External buoyancy is based on members not modelled with WAMIT
                    Internal buoyancy is computed from all members which are marked as filled in the HydroDyn input file, regardless of PropWAMIT flag
                    Total buoyancy does not include WAMIT-modelled buoyancy contribution



Weight loads about ( 0.0, 0.0, 0.0 )
------------------------------------
                                 MGFxi                 MGFyi                 MGFzi                 MGMxi                 MGMyi                 MGMzi  
                                  (N)                   (N)                   (N)                  (N-m)                 (N-m)                 (N-m)  
 Marine Growth:             0.000000E+00          0.000000E+00         -5.699645E+04          4.347563E-01         -4.367828E-01          0.000000E+00



Nodes


   i    JointIndx   JointOvrlp  InpMbrIndx     Nxi         Nyi         Nzi      InpMbrDist       R         dRdZ         t          tMG        MGDens    PropWAMIT   FilledFlag   FillDens   FillFSLoc       Cd          Ca          Cp         AxCa        AxCp        JAxCd       JAxCa       JAxCp    NConn  Connection List
  (-)      (-)         (-)         (-)         (m)         (m)         (m)          (-)         (m)         (-)        (m)         (m)       (kg/m^3)      (-)         (-)       (kg/m^3)       (-)         (-)         (-)         (-)         (-)         (-)         (-)         (-)         (-)      (-)                  
     1           1           0           1      0.0000      0.0000      5.0000      0.0000   3.250E+00   4.000E-02   4.000E-02   0.000E+00   0.000E+00           F           F   0.000E+00   0.000E+00   6.000E-01   6.000E-01   1.000E+00   1.000E+00   1.000E+00   8.000E-01   9.000E-01   1.000E+00      1     5
     2           2           0           4      0.0000      0.0000    -20.0000      0.0000   2.250E+00   0.000E+00   5.000E-02   0.000E+00   0.000E+00           F           T   1.010E+03  -2.000E+01   6.000E-01   6.000E-01   1.000E+00   1.000E+00   1.000E+00   9.000E-01   9.000E-01   1.000E+00      1    18
     3           3           0           2    -10.0000    -10.0000    -50.0000      1.0000   2.250E+00   0.000E+00   5.000E-02   0.000E+00   0.000E+00           F           F   0.000E+00   0.000E+00   3.000E-01   5.500E-01   1.000E+00   5.500E-01   1.000E+00   8.000E-01   1.000E+00   1.000E+00      1     2
     4           4           0           3     13.6600     -3.6600    -50.0000      1.0000   2.250E+00   0.000E+00   5.000E-02   0.000E+00   0.000E+00           F           F   0.000E+00   0.000E+00   2.000E-01   6.000E-01   1.000E+00   1.000E+00   1.000E+00   1.000E+00   1.000E+00   1.000E+00      1     3
     5           5           0           4     -3.6600     13.6600    -50.0000      1.0000   2.250E+00   0.000E+00   5.000E-02   0.000E+00   0.000E+00           F           T   1.010E+03  -2.000E+01   6.000E-01   6.000E-01   1.000E+00   1.000E+00   1.000E+00   1.000E+00   9.000E-01   1.000E+00      1     4
     6           6           0           1      0.0000      0.0000      0.0000      0.2000   3.050E+00   4.000E-02   4.200E-02   0.000E+00   0.000E+00           F           F   0.000E+00   0.000E+00   6.000E-01   6.000E-01   1.000E+00   1.000E+00   1.000E+00   0.000E+00   0.000E+00   0.000E+00      1    12
     7           7           0           2     -8.3333     -8.3333    -45.0000      0.8333   2.250E+00   3.618E-04   5.000E-02   4.000E-03   1.300E+03           F           F   0.000E+00   0.000E+00   3.417E-01   7.417E-01   1.000E+00   1.000E+00   1.000E+00   0.000E+00   0.000E+00   0.000E+00      1     6
     8           8           0           2     -3.3333     -3.3333    -30.0000      0.3333   2.250E+00   3.618E-04   5.000E-02   1.000E-02   1.100E+03           F           F   0.000E+00   0.000E+00   3.167E-01   7.167E-01   1.000E+00   1.000E+00   1.000E+00   0.000E+00   0.000E+00   0.000E+00      1    13
     9           9           0           3     11.3833     -3.0500    -45.0000      0.8333   2.250E+00   3.618E-04   5.000E-02   4.000E-03   1.300E+03           F           F   0.000E+00   0.000E+00   2.500E-01   6.500E-01   1.000E+00   1.000E+00   1.000E+00   0.000E+00   0.000E+00   0.000E+00      1     8
    10          10           0           3      4.5533     -1.2200    -30.0000      0.3333   2.250E+00   3.618E-04   5.000E-02   1.000E-02   1.100E+03           F           F   0.000E+00   0.000E+00   4.000E-01   7.500E-01   1.000E+00   1.000E+00   1.000E+00   0.000E+00   0.000E+00   0.000E+00      1    15
    11          11           0           4     -3.0500     11.3833    -45.0000      0.8333   2.250E+00   3.618E-04   5.000E-02   4.000E-03   1.300E+03           F           T   1.010E+03  -2.000E+01   1.050E+00   1.000E+00   1.000E+00   1.000E+00   1.000E+00   0.000E+00   0.000E+00   0.000E+00      1    10
    12          12           0           4     -1.2200      4.5533    -30.0000      0.3333   2.250E+00   3.618E-04   5.000E-02   1.000E-02   1.100E+03           F           T   1.010E+03  -2.000E+01   1.050E+00   1.000E+00   1.000E+00   1.000E+00   1.000E+00   0.000E+00   0.000E+00   0.000E+00      1    17
    13          -1           0           1      0.0000      0.0000    -10.0000      0.6000   2.650E+00   4.000E-02   4.600E-02   0.000E+00   0.000E+00           F           F   0.000E+00   0.000E+00   6.000E-01   6.000E-01   1.000E+00   1.000E+00   1.000E+00   0.000E+00   0.000E+00   0.000E+00      2     1    12
    14          -1           0           2     -5.8333     -5.8333    -37.5000      0.5833   2.250E+00   3.618E-04   5.000E-02   7.000E-03   1.200E+03           F           F   0.000E+00   0.000E+00   3.292E-01   7.292E-01   1.000E+00   1.000E+00   1.000E+00   0.000E+00   0.000E+00   0.000E+00      2     6    13
    15          -1           0           2     -1.6667     -1.6667    -25.0000      0.1667   2.250E+00   0.000E+00   5.000E-02   0.000E+00   0.000E+00           F           F   0.000E+00   0.000E+00   2.167E-01   5.083E-01   1.000E+00   5.083E-01   1.000E+00   0.000E+00   0.000E+00   0.000E+00      2     7    14
    16          -1           0           3      7.9683     -2.1350    -37.5000      0.5833   2.250E+00   3.618E-04   5.000E-02   7.000E-03   1.200E+03           F           F   0.000E+00   0.000E+00   4.000E-01   7.500E-01   1.000E+00   1.000E+00   1.000E+00   0.000E+00   0.000E+00   0.000E+00      2     8    15
    17          -1           0           3      2.2767     -0.6100    -25.0000      0.1667   2.250E+00   0.000E+00   5.000E-02   0.000E+00   0.000E+00           F           F   0.000E+00   0.000E+00   3.000E-01   7.000E-01   1.000E+00   1.000E+00   1.000E+00   0.000E+00   0.000E+00   0.000E+00      2     9    16
    18          -1           0           4     -2.1350      7.9683    -37.5000      0.5833   2.250E+00   3.618E-04   5.000E-02   7.000E-03   1.200E+03           F           T   1.010E+03  -2.000E+01   1.050E+00   1.000E+00   1.000E+00   1.000E+00   1.000E+00   0.000E+00   0.000E+00   0.000E+00      2    10    17
    19          -1           0           4     -0.6100      2.2767    -25.0000      0.1667   2.250E+00   0.000E+00   5.000E-02   0.000E+00   0.000E+00           F           T   1.010E+03  -2.000E+01   6.000E-01   6.000E-01   1.000E+00   1.000E+00   1.000E+00   0.000E+00   0.000E+00   0.000E+00      2    11    18
    20           2           0           1      0.0000      0.0000    -20.0000      1.0000   2.250E+00   4.000E-02   5.000E-02   0.000E+00   0.000E+00           F           F   0.000E+00   0.000E+00   6.000E-01   6.000E-01   1.000E+00   1.000E+00   1.000E+00   9.000E-01   9.000E-01   1.000E+00      1     1
    21           7           0           2     -8.3333     -8.3333    -45.0000      0.8333   2.250E+00   0.000E+00   5.000E-02   0.000E+00   0.000E+00           F           F   0.000E+00   0.000E+00   2.833E-01   5.417E-01   1.000E+00   5.417E-01   1.000E+00   0.000E+00   0.000E+00   0.000E+00      1     2
    22           9           0           3     11.3833     -3.0500    -45.0000      0.8333   2.250E+00   0.000E+00   5.000E-02   0.000E+00   0.000E+00           F           F   0.000E+00   0.000E+00   3.000E-01   7.000E-01   1.000E+00   1.000E+00   1.000E+00   0.000E+00   0.000E+00   0.000E+00      1     3
    23          11           0           4     -3.0500     11.3833    -45.0000      0.8333   2.250E+00   0.000E+00   5.000E-02   0.000E+00   0.000E+00           F           T   1.010E+03  -2.000E+01   6.000E-01   6.000E-01   1.000E+00   1.000E+00   1.000E+00   0.000E+00   0.000E+00   0.000E+00      1     4
    24           6           0           1      0.0000      0.0000      0.0000      0.2000   3.050E+00   4.000E-02   4.200E-02   0.000E+00   0.000E+00           F           F   0.000E+00   0.000E+00   6.000E-01   6.000E-01   1.000E+00   1.000E+00   1.000E+00   0.000E+00   0.000E+00   0.000E+00      1     5
    25           8           0           2     -3.3333     -3.3333    -30.0000      0.3333   2.250E+00   0.000E+00   5.000E-02   0.000E+00   0.000E+00           F           F   0.000E+00   0.000E+00   2.333E-01   5.167E-01   1.000E+00   8.500E-01   1.000E+00   0.000E+00   0.000E+00   0.000E+00      1     7
    26          10           0           3      4.5533     -1.2200    -30.0000      0.3333   2.250E+00   0.000E+00   5.000E-02   0.000E+00   0.000E+00           F           F   0.000E+00   0.000E+00   2.000E-01   6.000E-01   1.000E+00   1.000E+00   1.000E+00   0.000E+00   0.000E+00   0.000E+00      1     9
    27          12           0           4     -1.2200      4.5533    -30.0000      0.3333   2.250E+00   0.000E+00   5.000E-02   0.000E+00   0.000E+00           F           T   1.010E+03  -2.000E+01   6.000E-01   6.000E-01   1.000E+00   1.000E+00   1.000E+00   0.000E+00   0.000E+00   0.000E+00      1    11
    28           2           0           2      0.0000      0.0000    -20.0000      0.0000   2.250E+00   0.000E+00   5.000E-02   0.000E+00   0.000E+00           F           F   0.000E+00   0.000E+00   2.000E-01   5.000E-01   1.000E+00   5.000E-01   1.000E+00   9.000E-01   9.000E-01   1.000E+00      1    14
    29           2           0           3      0.0000      0.0000    -20.0000      0.0000   2.250E+00   0.000E+00   5.000E-02   0.000E+00   0.000E+00           F           F   0.000E+00   0.000E+00   3.000E-01   7.000E-01   1.000E+00   1.000E+00   1.000E+00   9.000E-01   9.000E-01   1.000E+00      1    16



Elements


   i    node1  node2      Length       Volume       MGVolume          R1          tMG1           t1             R2          tMG2           t2          MGDens1       MGDens2      PropWAMIT     FilledFlag   FillDensity    FillFSLoc     FillMass         Cd1            Ca1          Cp1          AxCa1         AxCp1        JAxCd1        JAxCa1        JAxCp1          Cd2           Ca2           Cp2          AxCa2         AxCp2        JAxCd2        JAxCa2        JAxCp2   
  (-)    (-)    (-)        (m)         (m^3)         (m^3)           (m)           (m)           (m)           (m)           (m)           (m)        (kg/m^3)      (kg/m^3)         (-)           (-)        (kg/m^3)         (-)          (kg)           (-)            (-)          (-)           (-)           (-)           (-)           (-)           (-)           (-)            (-)          (-)           (-)           (-)           (-)           (-)           (-)    
     1     20     13   1.00000E+01   1.88993E+02   0.00000E+00   2.25000E+00   0.00000E+00   5.00000E-02   2.65000E+00   0.00000E+00   4.60000E-02   0.00000E+00   0.00000E+00             F             F   0.00000E+00   0.00000E+00   0.00000E+00   6.00000E-01   6.00000E-01   1.00000E+00   1.00000E+00   1.00000E+00   9.00000E-01   9.00000E-01   1.00000E+00   6.00000E-01   6.00000E-01   1.00000E+00   1.00000E+00   1.00000E+00   0.00000E+00   0.00000E+00   0.00000E+00
     2      3     21   5.52771E+00   8.79144E+01   0.00000E+00   2.25000E+00   0.00000E+00   5.00000E-02   2.25000E+00   0.00000E+00   5.00000E-02   0.00000E+00   0.00000E+00             F             F   0.00000E+00   0.00000E+00   0.00000E+00   3.00000E-01   5.50000E-01   1.00000E+00   5.50000E-01   1.00000E+00   8.00000E-01   1.00000E+00   1.00000E+00   2.83333E-01   5.41667E-01   1.00000E+00   5.41667E-01   1.00000E+00   0.00000E+00   0.00000E+00   0.00000E+00
     3      4     22   5.52769E+00   8.79141E+01   0.00000E+00   2.25000E+00   0.00000E+00   5.00000E-02   2.25000E+00   0.00000E+00   5.00000E-02   0.00000E+00   0.00000E+00             F             F   0.00000E+00   0.00000E+00   0.00000E+00   2.00000E-01   6.00000E-01   1.00000E+00   1.00000E+00   1.00000E+00   1.00000E+00   1.00000E+00   1.00000E+00   3.00000E-01   7.00000E-01   1.00000E+00   1.00000E+00   1.00000E+00   0.00000E+00   0.00000E+00   0.00000E+00
     4      5     23   5.52769E+00   8.79141E+01   0.00000E+00   2.25000E+00   0.00000E+00   5.00000E-02   2.25000E+00   0.00000E+00   5.00000E-02   0.00000E+00   0.00000E+00             F             T   1.01000E+03  -2.00000E+01   8.48907E+04   6.00000E-01   6.00000E-01   1.00000E+00   1.00000E+00   1.00000E+00   1.00000E+00   9.00000E-01   1.00000E+00   6.00000E-01   6.00000E-01   1.00000E+00   1.00000E+00   1.00000E+00   0.00000E+00   0.00000E+00   0.00000E+00
     5     24      1   5.00000E+00   1.55915E+02   0.00000E+00   3.05000E+00   0.00000E+00   4.20000E-02   3.25000E+00   0.00000E+00   4.00000E-02   0.00000E+00   0.00000E+00             F             F   0.00000E+00   0.00000E+00   0.00000E+00   6.00000E-01   6.00000E-01   1.00000E+00   1.00000E+00   1.00000E+00   0.00000E+00   0.00000E+00   0.00000E+00   6.00000E-01   6.00000E-01   1.00000E+00   1.00000E+00   1.00000E+00   8.00000E-01   9.00000E-01   1.00000E+00
     6      7     14   8.29156E+00   1.32517E+02   6.45508E-01   2.25000E+00   4.00000E-03   5.00000E-02   2.25000E+00   7.00000E-03   5.00000E-02   1.30000E+03   1.20000E+03             F             F   0.00000E+00   0.00000E+00   0.00000E+00   3.41667E-01   7.41667E-01   1.00000E+00   1.00000E+00   1.00000E+00   0.00000E+00   0.00000E+00   0.00000E+00   3.29167E-01   7.29167E-01   1.00000E+00   1.00000E+00   1.00000E+00   0.00000E+00   0.00000E+00   0.00000E+00
     7     25     15   5.52771E+00   8.79144E+01   0.00000E+00   2.25000E+00   0.00000E+00   5.00000E-02   2.25000E+00   0.00000E+00   5.00000E-02   0.00000E+00   0.00000E+00             F             F   0.00000E+00   0.00000E+00   0.00000E+00   2.33333E-01   5.16667E-01   1.00000E+00   8.50000E-01   1.00000E+00   0.00000E+00   0.00000E+00   0.00000E+00   2.16667E-01   5.08333E-01   1.00000E+00   5.08333E-01   1.00000E+00   0.00000E+00   0.00000E+00   0.00000E+00
     8      9     16   8.29153E+00   1.32517E+02   6.45508E-01   2.25000E+00   4.00000E-03   5.00000E-02   2.25000E+00   7.00000E-03   5.00000E-02   1.30000E+03   1.20000E+03             F             F   0.00000E+00   0.00000E+00   0.00000E+00   2.50000E-01   6.50000E-01   1.00000E+00   1.00000E+00   1.00000E+00   0.00000E+00   0.00000E+00   0.00000E+00   4.00000E-01   7.50000E-01   1.00000E+00   1.00000E+00   1.00000E+00   0.00000E+00   0.00000E+00   0.00000E+00
     9     26     17   5.52769E+00   8.79141E+01   0.00000E+00   2.25000E+00   0.00000E+00   5.00000E-02   2.25000E+00   0.00000E+00   5.00000E-02   0.00000E+00   0.00000E+00             F             F   0.00000E+00   0.00000E+00   0.00000E+00   2.00000E-01   6.00000E-01   1.00000E+00   1.00000E+00   1.00000E+00   0.00000E+00   0.00000E+00   0.00000E+00   3.00000E-01   7.00000E-01   1.00000E+00   1.00000E+00   1.00000E+00   0.00000E+00   0.00000E+00   0.00000E+00
    10     11     18   8.29153E+00   1.32517E+02   6.45508E-01   2.25000E+00   4.00000E-03   5.00000E-02   2.25000E+00   7.00000E-03   5.00000E-02   1.30000E+03   1.20000E+03             F             T   1.01000E+03  -2.00000E+01   1.27336E+05   1.05000E+00   1.00000E+00   1.00000E+00   1.00000E+00   1.00000E+00   0.00000E+00   0.00000E+00   0.00000E+00   1.05000E+00   1.00000E+00   1.00000E+00   1.00000E+00   1.00000E+00   0.00000E+00   0.00000E+00   0.00000E+00
    11     27     19   5.52769E+00   8.79141E+01   0.00000E+00   2.25000E+00   0.00000E+00   5.00000E-02   2.25000E+00   0.00000E+00   5.00000E-02   0.00000E+00   0.00000E+00             F             T   1.01000E+03  -2.00000E+01   8.48907E+04   6.00000E-01   6.00000E-01   1.00000E+00   1.00000E+00   1.00000E+00   0.00000E+00   0.00000E+00   0.00000E+00   6.00000E-01   6.00000E-01   1.00000E+00   1.00000E+00   1.00000E+00   0.00000E+00   0.00000E+00   0.00000E+00
    12     13      6   1.00000E+01   2.55595E+02   0.00000E+00   2.65000E+00   0.00000E+00   4.60000E-02   3.05000E+00   0.00000E+00   4.20000E-02   0.00000E+00   0.00000E+00             F             F   0.00000E+00   0.00000E+00   0.00000E+00   6.00000E-01   6.00000E-01   1.00000E+00   1.00000E+00   1.00000E+00   0.00000E+00   0.00000E+00   0.00000E+00   6.00000E-01   6.00000E-01   1.00000E+00   1.00000E+00   1.00000E+00   0.00000E+00   0.00000E+00   0.00000E+00
    13     14      8   8.29156E+00   1.32870E+02   9.98276E-01   2.25000E+00   7.00000E-03   5.00000E-02   2.25000E+00   1.00000E-02   5.00000E-02   1.20000E+03   1.10000E+03             F             F   0.00000E+00   0.00000E+00   0.00000E+00   3.29167E-01   7.29167E-01   1.00000E+00   1.00000E+00   1.00000E+00   0.00000E+00   0.00000E+00   0.00000E+00   3.16667E-01   7.16667E-01   1.00000E+00   1.00000E+00   1.00000E+00   0.00000E+00   0.00000E+00   0.00000E+00
    14     15     28   5.52771E+00   8.79144E+01   0.00000E+00   2.25000E+00   0.00000E+00   5.00000E-02   2.25000E+00   0.00000E+00   5.00000E-02   0.00000E+00   0.00000E+00             F             F   0.00000E+00   0.00000E+00   0.00000E+00   2.16667E-01   5.08333E-01   1.00000E+00   9.25000E-01   1.00000E+00   0.00000E+00   0.00000E+00   0.00000E+00   2.00000E-01   5.00000E-01   1.00000E+00   5.00000E-01   1.00000E+00   9.00000E-01   9.00000E-01   1.00000E+00
    15     16     10   8.29153E+00   1.32869E+02   9.98260E-01   2.25000E+00   7.00000E-03   5.00000E-02   2.25000E+00   1.00000E-02   5.00000E-02   1.20000E+03   1.10000E+03             F             F   0.00000E+00   0.00000E+00   0.00000E+00   2.50000E-01   6.50000E-01   1.00000E+00   1.00000E+00   1.00000E+00   0.00000E+00   0.00000E+00   0.00000E+00   4.00000E-01   7.50000E-01   1.00000E+00   1.00000E+00   1.00000E+00   0.00000E+00   0.00000E+00   0.00000E+00
    16     17     29   5.52769E+00   8.79141E+01   0.00000E+00   2.25000E+00   0.00000E+00   5.00000E-02   2.25000E+00   0.00000E+00   5.00000E-02   0.00000E+00   0.00000E+00             F             F   0.00000E+00   0.00000E+00   0.00000E+00   2.00000E-01   6.00000E-01   1.00000E+00   1.00000E+00   1.00000E+00   0.00000E+00   0.00000E+00   0.00000E+00   3.00000E-01   7.00000E-01   1.00000E+00   1.00000E+00   1.00000E+00   9.00000E-01   9.00000E-01   1.00000E+00
    17     18     12   8.29153E+00   1.32869E+02   9.98260E-01   2.25000E+00   7.00000E-03   5.00000E-02   2.25000E+00   1.00000E-02   5.00000E-02   1.20000E+03   1.10000E+03             F             T   1.01000E+03  -2.00000E+01   1.27336E+05   1.05000E+00   1.00000E+00   1.00000E+00   1.00000E+00   1.00000E+00   0.00000E+00   0.00000E+00   0.00000E+00   1.05000E+00   1.00000E+00   1.00000E+00   1.00000E+00   1.00000E+00   0.00000E+00   0.00000E+00   0.00000E+00
    18     19      2   5.52769E+00   8.79141E+01   0.00000E+00   2.25000E+00   0.00000E+00   5.00000E-02   2.25000E+00   0.00000E+00   5.00000E-02   0.00000E+00   0.00000E+00             F             T   1.01000E+03  -2.00000E+01   8.48907E+04   6.00000E-01   6.00000E-01   1.00000E+00   1.00000E+00   1.00000E+00   0.00000E+00   0.00000E+00   0.00000E+00   6.00000E-01   6.00000E-01   1.00000E+00   1.00000E+00   1.00000E+00   9.00000E-01   9.00000E-01   1.00000E+00



Requested Member Outputs


   Label         Xi          Yi          Zi      InpMbrIndx   StartXi     StartYi     StartZi      EndXi       EndYi       EndZi        Loc    
    (-)          (m)         (m)         (m)        (-)         (m)         (m)         (m)         (m)         (m)         (m)         (-)    
 M2N2Vxi         6.8300     -1.8300    -35.0000           3      4.5533     -1.2200    -30.0000      7.9683     -2.1350    -37.5000      0.6667
 M2N2Vyi         6.8300     -1.8300    -35.0000           3      4.5533     -1.2200    -30.0000      7.9683     -2.1350    -37.5000      0.6667
 M2N2Vzi         6.8300     -1.8300    -35.0000           3      4.5533     -1.2200    -30.0000      7.9683     -2.1350    -37.5000      0.6667
 M2N2Axi         6.8300     -1.8300    -35.0000           3      4.5533     -1.2200    -30.0000      7.9683     -2.1350    -37.5000      0.6667
 M2N2Ayi         6.8300     -1.8300    -35.0000           3      4.5533     -1.2200    -30.0000      7.9683     -2.1350    -37.5000      0.6667
 M2N2Azi         6.8300     -1.8300    -35.0000           3      4.5533     -1.2200    -30.0000      7.9683     -2.1350    -37.5000      0.6667
 M2N2FDxi        6.8300     -1.8300    -35.0000           3      4.5533     -1.2200    -30.0000      7.9683     -2.1350    -37.5000      0.6667
 M2N2FDyi        6.8300     -1.8300    -35.0000           3      4.5533     -1.2200    -30.0000      7.9683     -2.1350    -37.5000      0.6667
 M2N2FDzi        6.8300     -1.8300    -35.0000           3      4.5533     -1.2200    -30.0000      7.9683     -2.1350    -37.5000      0.6667
 M2N2FIxi        6.8300     -1.8300    -35.0000           3      4.5533     -1.2200    -30.0000      7.9683     -2.1350    -37.5000      0.6667
 M2N2FIyi        6.8300     -1.8300    -35.0000           3      4.5533     -1.2200    -30.0000      7.9683     -2.1350    -37.5000      0.6667
 M2N2FIzi        6.8300     -1.8300    -35.0000           3      4.5533     -1.2200    -30.0000      7.9683     -2.1350    -37.5000      0.6667



 Requested Joint Outputs


   Label         Xi          Yi          Zi      InpJointID
    (-)          (m)         (m)         (m)        (-)    
 J1FDxi         13.6600     -3.6600    -50.0000           4
 J1FDyi         13.6600     -3.6600    -50.0000           4
 J1FDzi         13.6600     -3.6600    -50.0000           4



 Wave Kinematics


       m              k          Omega[m]       Direction    REAL(DFT{WaveElev})  IMAG(DFT{WaveElev})
      (-)           (1/m)        (rad/s)          (deg)             (m)                  (m)         
      -7259     1.60983E+01    -1.25646E+01     0.00000E+00     5.23039E-01          7.51893E-01
      -7258     1.60938E+01    -1.25629E+01     0.00000E+00    -4.66579E-02          4.01255E-01
      -7257     1.60894E+01    -1.25612E+01     0.00000E+00     3.22073E-01          4.31725E-02
      -7256     1.60850E+01    -1.25594E+01     0.00000E+00     9.10107E-01          4.37642E-01
      -7255     1.60805E+01    -1.25577E+01     0.00000E+00     4.57944E-01          8.11973E-01
      -7254     1.60761E+01    -1.25560E+01     0.00000E+00     1.31872E-01          3.86786E-01
      -7253     1.60717E+01    -1.25543E+01     0.00000E+00     4.77325E-01          4.80745E-02
      -7252     1.60672E+01    -1.25525E+01     0.00000E+00     9.00704E-01          1.20231E-01
      -7251     1.60628E+01    -1.25508E+01     0.00000E+00     8.44786E-01          4.49717E-01
      -7250     1.60584E+01    -1.25491E+01     0.00000E+00    -6.00930E-02         -2.64812E-01
      -7249     1.60540E+01    -1.25473E+01     0.00000E+00     7.76747E-01         -1.13383E+00
      -7248     1.60495E+01    -1.25456E+01     0.00000E+00     4.04853E-01         -3.07318E-01
      -7247     1.60451E+01    -1.25439E+01     0.00000E+00     2.37257E-01          2.55949E-02
      -7246     1.60407E+01    -1.25421E+01     0.00000E+00    -3.07848E-01         -1.14814E-01
      -7245     1.60362E+01    -1.25404E+01     0.00000E+00     1.63943E-01         -3.21092E-02
      -7244     1.60318E+01    -1.25387E+01     0.00000E+00    -1.72945E-01         -4.44753E-01
      -7243     1.60274E+01    -1.25369E+01     0.00000E+00     6.47422E-02          3.49479E-01
      -7242     1.60230E+01    -1.25352E+01     0.00000E+00    -2.92410E-01         -1.08904E-01
      -7241     1.60185E+01    -1.25335E+01     0.00000E+00     1.02280E-01          6.88773E-03
      -7240     1.60141E+01    -1.25318E+01     0.00000E+00     4.52240E-01         -9.40303E-01
      -7239     1.60097E+01    -1.25300E+01     0.00000E+00     7.39369E-01          6.56293E-01
      -7238     1.60053E+01    -1.25283E+01     0.00000E+00     1.37681E-01          7.04417E-01
      -7237     1.60008E+01    -1.25266E+01     0.00000E+00    -8.15663E-01          1.05607E+00
      -7236     1.59964E+01    -1.25248E+01     0.00000E+00    -6.93029E-01          4.39341E-01
      -7235     1.59920E+01    -1.25231E+01     0.00000E+00    -9.38115E-01         -3.96786E-01
      -7234     1.59876E+01    -1.25214E+01     0.00000E+00     7.31591E-01         -6.64210E-01
      -7233     1.59832E+01    -1.25196E+01     0.00000E+00     8.01518E-01         -5.15593E-01
      -7232     1.59787E+01    -1.25179E+01     0.00000E+00    -6.05974E-01          6.90392E-01
      -7231     1.59743E+01    -1.25162E+01     0.00000E+00     5.00287E-01         -2.84432E-01
      -7230     1.59699E+01    -1.25144E+01     0.00000E+00    -9.72382E-01         -2.74934E-01
      -7229     1.59655E+01    -1.25127E+01     0.00000E+00     4.93573E-01         -3.50597E-01
      -7228     1.59611E+01    -1.25110E+01     0.00000E+00     4.45009E-01          1.27256E+00
      -7227     1.59567E+01    -1.25093E+01     0.00000E+00     3.25693E-01          3.50099E-01
      -7226     1.59522E+01    -1.25075E+01     0.00000E+00     1.09525E+00         -8.13752E-02
      -7225     1.59478E+01    -1.25058E+01     0.00000E+00    -3.70748E-01          1.33725E+00
      -7224     1.59434E+01    -1.25041E+01     0.00000E+00    -1.26368E-01          3.76879E-01
      -7223     1.59390E+01    -1.25023E+01     0.00000E+00    -3.58635E-01         -1.25956E+00
      -7222     1.59346E+01    -1.25006E+01     0.00000E+00     1.23702E+00          8.42359E-01
      -7221     1.59302E+01    -1.24989E+01     0.00000E+00     8.66526E-02          1.03870E+00
      -7220     1.59258E+01    -1.24971E+01     0.00000E+00     1.26692E-01          4.34710E-01
      -7219     1.59214E+01    -1.24954E+01     0.00000E+00    -7.06164E-01         -1.37031E-01
      -7218     1.59169E+01    -1.24937E+01     0.00000E+00     7.03258E-01         -3.41255E-01
      -7217     1.59125E+01    -1.24919E+01     0.00000E+00    -8.18556E-01          5.27845E-01
      -7216     1.59081E+01    -1.24902E+01     0.00000E+00    -1.07397E-01         -8.33192E-01
      -7215     1.59037E+01    -1.24885E+01     0.00000E+00    -7.25951E-01          5.56666E-01
      -7214     1.58993E+01    -1.24867E+01     0.00000E+00    -6.52977E-01          4.85960E-01
      -7213     1.58949E+01    -1.24850E+01     0.00000E+00    -2.33501E-01         -1.56324E-01
      -7212     1.58905E+01    -1.24833E+01     0.00000E+00     2.89499E-01         -2.91670E-01
      -7211     1.58861E+01    -1.24816E+01     0.00000E+00    -2.26652E-01          6.29538E-01
      -7210     1.58817E+01    -1.24798E+01     0.00000E+00    -4.37029E-01          4.56216E-01
      -7209     1.58773E+01    -1.24781E+01     0.00000E+00     2.46107E-01         -4.64592E-01
      -7208     1.58729E+01    -1.24764E+01     0.00000E+00     2.34316E-01         -7.87466E-01
      -7207     1.58685E+01    -1.24746E+01     0.00000E+00     2.60168E-01          4.81569E-01
      -7206     1.58641E+01    -1.24729E+01     0.00000E+00    -7.79773E-01          1.17863E+00
      -7205     1.58597E+01    -1.24712E+01     0.00000E+00    -5.69494E-01         -2.50288E-01
      -7204     1.58553E+01    -1.24694E+01     0.00000E+00    -7.44082E-01         -8.73798E-02
      -7203     1.58509E+01    -1.24677E+01     0.00000E+00    -1.97641E+00          5.51581E-01
      -7202     1.58465E+01    -1.24660E+01     0.00000E+00    -4.81052E-01         -1.33888E+00
      -7201     1.58421E+01    -1.24642E+01     0.00000E+00    -6.43063E-01         -7.56501E-01
      -7200     1.58377E+01    -1.24625E+01     0.00000E+00     4.60198E-01         -2.98119E-01
      -7199     1.58333E+01    -1.24608E+01     0.00000E+00    -3.26711E-01         -4.73230E-02
      -7198     1.58289E+01    -1.24591E+01     0.00000E+00     3.57831E-01          2.47109E-02
      -7197     1.58245E+01    -1.24573E+01     0.00000E+00    -1.65784E-01          1.11568E+00
      -7196     1.58201E+01    -1.24556E+01     0.00000E+00     5.18330E-01          1.45710E+00
      -7195     1.58157E+01    -1.24539E+01     0.00000E+00     1.24974E+00         -3.07611E-01
      -7194     1.58113E+01    -1.24521E+01     0.00000E+00     7.78654E-01          7.19766E-01
      -7193     1.58069E+01    -1.24504E+01     0.00000E+00     2.89445E-01         -4.66235E-01
      -7192     1.58025E+01    -1.24487E+01     0.00000E+00    -3.60989E-01         -1.14467E-01
      -7191     1.57981E+01    -1.24469E+01     0.00000E+00    -1.52587E-01         -2.14332E-01
      -7190     1.57937E+01    -1.24452E+01     0.00000E+00     2.64018E-01         -6.55235E-01
      -7189     1.57893E+01    -1.24435E+01     0.00000E+00    -5.41557E-01         -6.69943E-01
      -7188     1.57849E+01    -1.24417E+01     0.00000E+00    -1.18879E+00          3.71529E-02
      -7187     1.57805E+01    -1.24400E+01     0.00000E+00    -2.63115E-01         -1.19654E-01
      -7186     1.57761E+01    -1.24383E+01     0.00000E+00     5.30082E-01         -5.03393E-01
      -7185     1.57717E+01    -1.24366E+01     0.00000E+00    -2.63941E-01         -5.25135E-01
      -7184     1.57673E+01    -1.24348E+01     0.00000E+00    -5.95921E-01         -6.54214E-01
      -7183     1.57630E+01    -1.24331E+01     0.00000E+00     1.92687E-01         -1.56020E-01
      -7182     1.57586E+01    -1.24314E+01     0.00000E+00    -1.60158E-01         -7.49890E-01
      -7181     1.57542E+01    -1.24296E+01     0.00000E+00    -2.30322E-01          4.36692E-01
      -7180     1.57498E+01    -1.24279E+01     0.00000E+00     7.88462E-01          1.30091E-01
      -7179     1.57454E+01    -1.24262E+01     0.00000E+00    -2.07902E-01         -9.83621E-01
      -7178     1.57410E+01    -1.24244E+01     0.00000E+00    -6.99167E-01          5.58611E-01
      -7177     1.57366E+01    -1.24227E+01     0.00000E+00    -1.24130E-01         -2.19601E-01
      -7176     1.57322E+01    -1.24210E+01     0.00000E+00     5.30172E-01         -4.86397E-02
      -7175     1.57279E+01    -1.24192E+01     0.00000E+00     1.10628E+00          6.46405E-02
      -7174     1.57235E+01    -1.24175E+01     0.00000E+00    -1.88587E-01          8.31714E-01
      -7173     1.57191E+01    -1.24158E+01     0.00000E+00    -9.74981E-01          1.40649E+00
      -7172     1.57147E+01    -1.24141E+01     0.00000E+00     5.08074E-01         -7.26179E-02
      -7171     1.57103E+01    -1.24123E+01     0.00000E+00    -2.74688E-02          1.80905E+00
      -7170     1.57059E+01    -1.24106E+01     0.00000E+00     1.21510E+00          6.02372E-01
      -7169     1.57016E+01    -1.24089E+01     0.00000E+00    -1.29126E+00         -4.41412E-01
      -7168     1.56972E+01    -1.24071E+01     0.00000E+00     2.55791E-01          5.60580E-01
      -7167     1.56928E+01    -1.24054E+01     0.00000E+00    -1.34123E-02         -2.02239E-01
      -7166     1.56884E+01    -1.24037E+01     0.00000E+00     7.39262E-01          4.38873E-01
      -7165     1.56841E+01    -1.24019E+01     0.00000E+00     3.82631E-01         -6.12706E-01
      -7164     1.56797E+01    -1.24002E+01     0.00000E+00    -6.26955E-02          5.51053E-01
      -7163     1.56753E+01    -1.23985E+01     0.00000E+00    -4.49839E-01          1.91857E+00
      -7162     1.56709E+01    -1.23967E+01     0.00000E+00    -1.27044E+00          2.44190E-01
      -7161     1.56665E+01    -1.23950E+01     0.00000E+00    -7.86765E-02          6.72624E-01
      -7160     1.56622E+01    -1.23933E+01     0.00000E+00    -1.63057E-01         -2.65535E-01
      -7159     1.56578E+01    -1.23916E+01     0.00000E+00     5.14621E-01         -3.44715E-01
      -7158     1.56534E+01    -1.23898E+01     0.00000E+00    -2.27638E-01         -3.31652E-01
      -7157     1.56490E+01    -1.23881E+01     0.00000E+00     2.66659E-01          1.55051E-01
      -7156     1.56447E+01    -1.23864E+01     0.00000E+00     4.28738E-01          7.43644E-02
      -7155     1.56403E+01    -1.23846E+01     0.00000E+00    -2.84813E-01          5.54096E-01
      -7154     1.56359E+01    -1.23829E+01     0.00000E+00     5.92909E-01          7.77158E-01
      -7153     1.56316E+01    -1.23812E+01     0.00000E+00    -2.34924E-01          2.11591E-01
      -7152     1.56272E+01    -1.23794E+01     0.00000E+00    -6.32465E-01          1.25031E+00
      -7151     1.56228E+01    -1.23777E+01     0.00000E+00     5.84907E-01          6.99840E-01
      -7150     1.56184E+01    -1.23760E+01     0.00000E+00    -1.06024E-01          3.11866E-01
      -7149     1.56141E+01    -1.23742E+01     0.00000E+00     8.09420E-04          4.25857E-01
      -7148     1.56097E+01    -1.23725E+01     0.00000E+00    -5.34801E-01         -1.01985E+00
      -7147     1.56053E+01    -1.23708E+01     0.00000E+00    -1.69353E+00          6.77236E-02
      -7146     1.56010E+01    -1.23690E+01     0.00000E+00     9.21794E-01         -1.10019E+00
      -7145     1.55966E+01    -1.23673E+01     0.00000E+00     5.16294E-02          3.57685E-01
      -7144     1.55922E+01    -1.23656E+01     0.00000E+00    -2.79391E-01          3.57991E-01
      -7143     1.55879E+01    -1.23639E+01     0.00000E+00     5.61872E-01         -2.32560E-02
      -7142     1.55835E+01    -1.23621E+01     0.00000E+00    -7.15388E-01         -2.85392E-01
      -7141     1.55792E+01    -1.23604E+01     0.00000E+00     6.55326E-01         -2.30103E-01
      -7140     1.55748E+01    -1.23587E+01     0.00000E+00     5.70657E-01         -4.83447E-01
      -7139     1.55704E+01    -1.23569E+01     0.00000E+00    -2.37289E-01         -7.10117E-01
      -7138     1.55661E+01    -1.23552E+01     0.00000E+00    -4.23348E-01          1.36862E-01
      -7137     1.55617E+01    -1.23535E+01     0.00000E+00     4.07684E-01         -3.10067E-01
      -7136     1.55573E+01    -1.23517E+01     0.00000E+00     9.53805E-01         -1.65031E-01
      -7135     1.55530E+01    -1.23500E+01     0.00000E+00    -4.56731E-01          8.91363E-01
      -7134     1.55486E+01    -1.23483E+01     0.00000E+00    -2.88208E-01          4.42831E-02
      -7133     1.55443E+01    -1.23465E+01     0.00000E+00    -4.86069E-01          1.36942E+00
      -7132     1.55399E+01    -1.23448E+01     0.00000E+00     1.81060E-01          2.07524E-01
      -7131     1.55356E+01    -1.23431E+01     0.00000E+00     2.26878E-01         -1.04471E+00
      -7130     1.55312E+01    -1.23414E+01     0.00000E+00    -9.79139E-01         -8.28857E-01
      -7129     1.55268E+01    -1.23396E+01     0.00000E+00     5.17803E-01          1.25732E-01
      -7128     1.55225E+01    -1.23379E+01     0.00000E+00     5.60043E-01          1.25263E-01
      -7127     1.55181E+01    -1.23362E+01     0.00000E+00    -4.43169E-01          3.22972E-01
      -7126     1.55138E+01    -1.23344E+01     0.00000E+00    -5.11514E-01          2.11150E-01
      -7125     1.55094E+01    -1.23327E+01     0.00000E+00    -1.57382E-01         -8.64083E-01
      -7124     1.55051E+01    -1.23310E+01     0.00000E+00     5.34120E-01         -9.28807E-01
      -7123     1.55007E+01    -1.23292E+01     0.00000E+00     3.10715E-01         -6.53228E-01
      -7122     1.54964E+01    -1.23275E+01     0.00000E+00    -1.59664E-01         -8.97020E-01
      -7121     1.54920E+01    -1.23258E+01     0.00000E+00     8.06937E-01          5.48199E-01
      -7120     1.54877E+01    -1.23240E+01     0.00000E+00     8.44516E-04         -3.34076E-01
      -7119     1.54833E+01    -1.23223E+01     0.00000E+00     9.80381E-01         -4.47681E-01
      -7118     1.54790E+01    -1.23206E+01     0.00000E+00     7.34576E-01          1.59093E-01
      -7117     1.54746E+01    -1.23189E+01     0.00000E+00     4.63644E-01          2.45991E-01
      -7116     1.54703E+01    -1.23171E+01     0.00000E+00     1.55081E+00          3.90853E-02
      -7115     1.54659E+01    -1.23154E+01     0.00000E+00    -5.63706E-01          1.15417E+00
      -7114     1.54616E+01    -1.23137E+01     0.00000E+00    -6.05561E-01          2.58753E-01
      -7113     1.54572E+01    -1.23119E+01     0.00000E+00    -2.83328E-01          1.25573E-01
      -7112     1.54529E+01    -1.23102E+01     0.00000E+00     9.83916E-01         -1.89211E-01
      -7111     1.54485E+01    -1.23085E+01     0.00000E+00    -9.13190E-01         -5.62249E-02
      -7110     1.54442E+01    -1.23067E+01     0.00000E+00    -9.77108E-01         -1.01811E+00
      -7109     1.54398E+01    -1.23050E+01     0.00000E+00    -4.85039E-01          6.29922E-01
      -7108     1.54355E+01    -1.23033E+01     0.00000E+00    -1.49515E-01          1.47050E+00
      -7107     1.54312E+01    -1.23015E+01     0.00000E+00     7.11198E-02          1.54023E-01
      -7106     1.54268E+01    -1.22998E+01     0.00000E+00     2.18581E-01          5.28286E-01
      -7105     1.54225E+01    -1.22981E+01     0.00000E+00    -5.94670E-01          2.09434E-01
      -7104     1.54181E+01    -1.22964E+01     0.00000E+00     6.00118E-02         -4.16568E-01
      -7103     1.54138E+01    -1.22946E+01     0.00000E+00     5.20862E-02          2.98251E-01
      -7102     1.54095E+01    -1.22929E+01     0.00000E+00     3.18297E-01         -1.13619E-01
      -7101     1.54051E+01    -1.22912E+01     0.00000E+00    -4.45209E-01          1.09252E+00
      -7100     1.54008E+01    -1.22894E+01     0.00000E+00     5.55330E-01          1.11818E+00
      -7099     1.53964E+01    -1.22877E+01     0.00000E+00     5.85345E-01         -1.18925E+00
      -7098     1.53921E+01    -1.22860E+01     0.00000E+00    -3.95413E-01         -7.96185E-01
      -7097     1.53878E+01    -1.22842E+01     0.00000E+00    -9.46791E-01          6.33246E-01
      -7096     1.53834E+01    -1.22825E+01     0.00000E+00    -1.59163E-01         -4.69602E-01
      -7095     1.53791E+01    -1.22808E+01     0.00000E+00    -4.72021E-01         -4.55935E-01
      -7094     1.53748E+01    -1.22790E+01     0.00000E+00     9.88570E-01          5.38103E-02
      -7093     1.53704E+01    -1.22773E+01     0.00000E+00     8.97061E-01         -3.39986E-01
      -7092     1.53661E+01    -1.22756E+01     0.00000E+00    -8.52049E-01          8.46628E-01
      -7091     1.53618E+01    -1.22738E+01     0.00000E+00     9.24084E-01         -6.31449E-01
      -7090     1.53574E+01    -1.22721E+01     0.00000E+00     3.68079E-01         -4.12840E-01
      -7089     1.53531E+01    -1.22704E+01     0.00000E+00    -7.37413E-01          7.53259E-01
      -7088     1.53488E+01    -1.22687E+01     0.00000E+00    -4.67663E-01          6.00610E-01
      -7087     1.53444E+01    -1.22669E+01     0.00000E+00    -1.15405E+00          1.38421E+00
      -7086     1.53401E+01    -1.22652E+01     0.00000E+00     1.28321E-02          1.00815E+00
      -7085     1.53358E+01    -1.22635E+01     0.00000E+00     4.58708E-01         -3.08027E-01
      -7084     1.53314E+01    -1.22617E+01     0.00000E+00     4.19639E-01         -8.53079E-01
      -7083     1.53271E+01    -1.22600E+01     0.00000E+00    -3.57393E-01          3.18218E-01
      -7082     1.53228E+01    -1.22583E+01     0.00000E+00    -8.63108E-01          6.36194E-01
      -7081     1.53185E+01    -1.22565E+01     0.00000E+00     8.71271E-01         -8.39454E-01
      -7080     1.53141E+01    -1.22548E+01     0.00000E+00    -4.43416E-01          3.89877E-01
      -7079     1.53098E+01    -1.22531E+01     0.00000E+00    -3.40747E-01         -5.06677E-01
      -7078     1.53055E+01    -1.22513E+01     0.00000E+00    -1.63766E-01          2.75991E-01
      -7077     1.53012E+01    -1.22496E+01     0.00000E+00    -1.24103E+00         -4.13446E-01
      -7076     1.52968E+01    -1.22479E+01     0.00000E+00     9.14930E-02         -2.09622E-01
      -7075     1.52925E+01    -1.22462E+01     0.00000E+00    -9.17898E-01          2.44326E-01
      -7074     1.52882E+01    -1.22444E+01     0.00000E+00     5.93522E-01         -3.86900E-01
      -7073     1.52839E+01    -1.22427E+01     0.00000E+00     9.74089E-01         -5.04972E-01
      -7072     1.52795E+01    -1.22410E+01     0.00000E+00    -4.27483E-01         -1.78910E-01
      -7071     1.52752E+01    -1.22392E+01     0.00000E+00    -6.10141E-01         -6.44645E-01
      -7070     1.52709E+01    -1.22375E+01     0.00000E+00    -1.97460E-02         -1.98534E-01
      -7069     1.52666E+01    -1.22358E+01     0.00000E+00     2.17158E-01         -8.28347E-02
      -7068     1.52623E+01    -1.22340E+01     0.00000E+00     1.06734E-01          7.53937E-01
      -7067     1.52579E+01    -1.22323E+01     0.00000E+00     1.04777E-01         -3.79976E-01
      -7066     1.52536E+01    -1.22306E+01     0.00000E+00    -1.23103E+00          9.40086E-02
      -7065     1.52493E+01    -1.22288E+01     0.00000E+00    -2.65299E-01          2.38556E-01
      -7064     1.52450E+01    -1.22271E+01     0.00000E+00    -4.10347E-01         -3.47304E-01
      -7063     1.52407E+01    -1.22254E+01     0.00000E+00     1.28756E+00         -6.05596E-01
      -7062     1.52364E+01    -1.22237E+01     0.00000E+00    -6.83272E-01         -7.74455E-01
      -7061     1.52320E+01    -1.22219E+01     0.00000E+00     1.35965E-01          5.15973E-01
      -7060     1.52277E+01    -1.22202E+01     0.00000E+00     3.01607E-01          1.95235E-01
      -7059     1.52234E+01    -1.22185E+01     0.00000E+00    -2.02170E-01         -3.11982E-01
      -7058     1.52191E+01    -1.22167E+01     0.00000E+00    -1.35672E-01         -1.32979E-01
      -7057     1.52148E+01    -1.22150E+01     0.00000E+00     1.55877E+00         -5.23716E-01
      -7056     1.52105E+01    -1.22133E+01     0.00000E+00     1.98061E-01          5.89455E-01
      -7055     1.52062E+01    -1.22115E+01     0.00000E+00     4.30154E-01         -5.20529E-01
      -7054     1.52019E+01    -1.22098E+01     0.00000E+00     6.11574E-01          2.17110E-01
      -7053     1.51976E+01    -1.22081E+01     0.00000E+00    -4.52475E-01          2.92181E-01
      -7052     1.51932E+01    -1.22063E+01     0.00000E+00     1.32883E-01         -3.24730E-01
      -7051     1.51889E+01    -1.22046E+01     0.00000E+00    -6.89377E-02         -1.06518E+00
      -7050     1.51846E+01    -1.22029E+01     0.00000E+00     5.01937E-01          4.74229E-01
      -7049     1.51803E+01    -1.22011E+01     0.00000E+00    -1.62018E+00          7.63328E-02
      -7048     1.51760E+01    -1.21994E+01     0.00000E+00     1.14647E+00         -6.20135E-02
      -7047     1.51717E+01    -1.21977E+01     0.00000E+00    -4.01482E-01         -3.18813E-01
      -7046     1.51674E+01    -1.21960E+01     0.00000E+00    -6.68589E-01          2.88200E-02
      -7045     1.51631E+01    -1.21942E+01     0.00000E+00    -7.96034E-01          1.35885E+00
      -7044     1.51588E+01    -1.21925E+01     0.00000E+00     5.35344E-01         -9.38816E-01
      -7043     1.51545E+01    -1.21908E+01     0.00000E+00     2.50181E-01          2.19890E-01
      -7042     1.51502E+01    -1.21890E+01     0.00000E+00     2.89456E-01          3.57376E-02
      -7041     1.51459E+01    -1.21873E+01     0.00000E+00     1.53734E+00          7.10200E-01
      -7040     1.51416E+01    -1.21856E+01     0.00000E+00     4.33803E-01          3.98148E-02
      -7039     1.51373E+01    -1.21838E+01     0.00000E+00     3.34645E-01         -1.16802E-01
      -7038     1.51330E+01    -1.21821E+01     0.00000E+00    -2.28271E-01         -6.93611E-01
      -7037     1.51287E+01    -1.21804E+01     0.00000E+00    -5.80685E-01         -1.17834E-01
      -7036     1.51244E+01    -1.21786E+01     0.00000E+00    -2.13306E-01         -2.26151E-01
      -7035     1.51201E+01    -1.21769E+01     0.00000E+00     6.53453E-01          4.04213E-02
      -7034     1.51158E+01    -1.21752E+01     0.00000E+00     2.87150E-01          7.36632E-01
      -7033     1.51115E+01    -1.21735E+01     0.00000E+00    -1.76088E+00          9.92380E-01
      -7032     1.51072E+01    -1.21717E+01     0.00000E+00     1.28580E+00         -1.45509E-02
      -7031     1.51029E+01    -1.21700E+01     0.00000E+00     9.77831E-01          3.04510E-01
      -7030     1.50986E+01    -1.21683E+01     0.00000E+00     4.28807E-01         -9.19820E-01
      -7029     1.50943E+01    -1.21665E+01     0.00000E+00    -8.28230E-01          2.02457E-01
      -7028     1.50900E+01    -1.21648E+01     0.00000E+00     8.14612E-01         -3.54443E-01
      -7027     1.50857E+01    -1.21631E+01     0.00000E+00     7.05250E-01          2.57816E-01
      -7026     1.50814E+01    -1.21613E+01     0.00000E+00     1.42504E+00          1.21305E-01
      -7025     1.50771E+01    -1.21596E+01     0.00000E+00    -5.06942E-01         -7.19983E-01
      -7024     1.50728E+01    -1.21579E+01     0.00000E+00     4.16759E-02          4.29581E-01
      -7023     1.50685E+01    -1.21561E+01     0.00000E+00    -2.01260E-01         -6.74652E-01
      -7022     1.50642E+01    -1.21544E+01     0.00000E+00    -1.17616E-01         -1.21650E-01
      -7021     1.50600E+01    -1.21527E+01     0.00000E+00     5.30076E-01          6.52303E-01
      -7020     1.50557E+01    -1.21510E+01     0.00000E+00     1.64652E-01         -4.39580E-01
      -7019     1.50514E+01    -1.21492E+01     0.00000E+00    -4.43022E-01         -2.12749E-01
      -7018     1.50471E+01    -1.21475E+01     0.00000E+00     7.69307E-01         -8.73174E-01
      -7017     1.50428E+01    -1.21458E+01     0.00000E+00    -2.41231E-01         -1.17565E+00
      -7016     1.50385E+01    -1.21440E+01     0.00000E+00     2.47936E-01          4.28921E-01
      -7015     1.50342E+01    -1.21423E+01     0.00000E+00     5.80000E-01          1.95004E-01
      -7014     1.50299E+01    -1.21406E+01     0.00000E+00    -3.61414E-01          4.69500E-01
      -7013     1.50257E+01    -1.21388E+01     0.00000E+00    -1.76992E-01          1.48081E-01
      -7012     1.50214E+01    -1.21371E+01     0.00000E+00    -8.90636E-01          1.80983E-01
      -7011     1.50171E+01    -1.21354E+01     0.00000E+00     5.03567E-01          4.01484E-01
      -7010     1.50128E+01    -1.21336E+01     0.00000E+00     1.02801E+00         -4.66399E-01
      -7009     1.50085E+01    -1.21319E+01     0.00000E+00     5.62886E-01          3.37809E-01
      -7008     1.50042E+01    -1.21302E+01     0.00000E+00    -9.55988E-01          2.16825E-01
      -7007     1.50000E+01    -1.21285E+01     0.00000E+00    -6.16125E-02         -4.94113E-02
      -7006     1.49957E+01    -1.21267E+01     0.00000E+00     1.56645E+00         -3.53887E-01
      -7005     1.49914E+01    -1.21250E+01     0.00000E+00     1.43096E-01          1.21420E-01
      -7004     1.49871E+01    -1.21233E+01     0.00000E+00    -1.69545E-01          2.41442E-01
      -7003     1.49828E+01    -1.21215E+01     0.00000E+00     1.35042E-01          8.80694E-02
      -7002     1.49786E+01    -1.21198E+01     0.00000E+00     1.54932E-01         -4.68177E-01
      -7001     1.49743E+01    -1.21181E+01     0.00000E+00     1.29702E-01          1.08592E+00
      -7000     1.49700E+01    -1.21163E+01     0.00000E+00    -1.11953E+00         -2.50152E-01
      -6999     1.49657E+01    -1.21146E+01     0.00000E+00     1.42569E+00          9.21838E-02
      -6998     1.49615E+01    -1.21129E+01     0.00000E+00     4.16347E-01          6.40055E-01
      -6997     1.49572E+01    -1.21111E+01     0.00000E+00     5.32115E-01         -5.55466E-01
      -6996     1.49529E+01    -1.21094E+01     0.00000E+00     4.78322E-01         -7.53255E-01
      -6995     1.49486E+01    -1.21077E+01     0.00000E+00     1.98876E-01         -4.91616E-01
      -6994     1.49444E+01    -1.21060E+01     0.00000E+00     1.33529E+00         -3.77214E-01
      -6993     1.49401E+01    -1.21042E+01     0.00000E+00    -7.56401E-01         -1.77118E-01
      -6992     1.49358E+01    -1.21025E+01     0.00000E+00     1.15173E+00          1.59262E-01
      -6991     1.49315E+01    -1.21008E+01     0.00000E+00    -1.59411E-01          1.45712E-01
      -6990     1.49273E+01    -1.20990E+01     0.00000E+00     5.18721E-03         -1.39723E+00
      -6989     1.49230E+01    -1.20973E+01     0.00000E+00    -7.35169E-01         -7.82911E-01
      -6988     1.49187E+01    -1.20956E+01     0.00000E+00    -3.61246E-01          3.03678E-01
      -6987     1.49145E+01    -1.20938E+01     0.00000E+00    -7.75633E-01         -2.28907E-01
      -6986     1.49102E+01    -1.20921E+01     0.00000E+00     4.02009E-01          1.24020E+00
      -6985     1.49059E+01    -1.20904E+01     0.00000E+00    -1.04111E+00          1.02764E-01
      -6984     1.49016E+01    -1.20886E+01     0.00000E+00    -1.43873E-01         -6.42379E-01
      -6983     1.48974E+01    -1.20869E+01     0.00000E+00     3.51813E-02         -9.68804E-02
      -6982     1.48931E+01    -1.20852E+01     0.00000E+00    -9.29921E-02         -1.00183E+00
      -6981     1.48888E+01    -1.20834E+01     0.00000E+00    -8.19487E-01         -3.11048E-01
      -6980     1.48846E+01    -1.20817E+01     0.00000E+00     1.00122E+00          6.78078E-01
      -6979     1.48803E+01    -1.20800E+01     0.00000E+00    -2.04477E-01          8.46455E-01
      -6978     1.48761E+01    -1.20783E+01     0.00000E+00     1.93580E-02         -8.22455E-02
      -6977     1.48718E+01    -1.20765E+01     0.00000E+00     5.91821E-01         -1.36566E-01
      -6976     1.48675E+01    -1.20748E+01     0.00000E+00     8.86830E-01         -1.28070E+00
      -6975     1.48633E+01    -1.20731E+01     0.00000E+00     7.33070E-01         -9.08999E-01
      -6974     1.48590E+01    -1.20713E+01     0.00000E+00     4.28851E-03          3.54042E-04
      -6973     1.48547E+01    -1.20696E+01     0.00000E+00    -8.29888E-01          2.51516E-01
      -6972     1.48505E+01    -1.20679E+01     0.00000E+00     1.28634E-02         -1.13530E+00
      -6971     1.48462E+01    -1.20661E+01     0.00000E+00     4.10648E-01          5.19805E-02
      -6970     1.48420E+01    -1.20644E+01     0.00000E+00    -3.26498E-02          6.85920E-01
      -6969     1.48377E+01    -1.20627E+01     0.00000E+00    -4.46613E-01          4.01098E-01
      -6968     1.48335E+01    -1.20609E+01     0.00000E+00    -3.30632E-01         -7.59391E-01
      -6967     1.48292E+01    -1.20592E+01     0.00000E+00     1.40725E+00          3.39390E-01
      -6966     1.48249E+01    -1.20575E+01     0.00000E+00     1.82721E-01          5.51484E-02
      -6965     1.48207E+01    -1.20558E+01     0.00000E+00     6.09080E-01         -9.00323E-01
      -6964     1.48164E+01    -1.20540E+01     0.00000E+00     7.68262E-02         -2.93446E-01
      -6963     1.48122E+01    -1.20523E+01     0.00000E+00    -1.34927E-01         -4.25993E-03
      -6962     1.48079E+01    -1.20506E+01     0.00000E+00    -5.63875E-02          1.16335E+00
      -6961     1.48037E+01    -1.20488E+01     0.00000E+00     1.70729E-01          9.22558E-01
      -6960     1.47994E+01    -1.20471E+01     0.00000E+00    -1.98117E-01          1.37308E-01
      -6959     1.47952E+01    -1.20454E+01     0.00000E+00    -8.52893E-01          6.43499E-01
      -6958     1.47909E+01    -1.20436E+01     0.00000E+00    -5.17134E-01          2.46600E-01
      -6957     1.47867E+01    -1.20419E+01     0.00000E+00    -1.45794E+00         -2.34201E-01
      -6956     1.47824E+01    -1.20402E+01     0.00000E+00     7.12154E-01          1.39740E-01
      -6955     1.47782E+01    -1.20384E+01     0.00000E+00    -1.60071E+00         -2.15883E-01
      -6954     1.47739E+01    -1.20367E+01     0.00000E+00    -1.58923E+00         -3.56961E-01
      -6953     1.47697E+01    -1.20350E+01     0.00000E+00    -4.65418E-01          1.59071E-01
      -6952     1.47654E+01    -1.20333E+01     0.00000E+00     1.02844E-01          4.93901E-01
      -6951     1.47612E+01    -1.20315E+01     0.00000E+00     2.69371E-01         -1.03895E+00
      -6950     1.47569E+01    -1.20298E+01     0.00000E+00     2.39667E-01          3.44508E-01
      -6949     1.47527E+01    -1.20281E+01     0.00000E+00    -1.74237E-01          8.46980E-01
      -6948     1.47484E+01    -1.20263E+01     0.00000E+00     4.87619E-01         -9.72589E-01
      -6947     1.47442E+01    -1.20246E+01     0.00000E+00     7.33290E-01          9.96765E-01
      -6946     1.47399E+01    -1.20229E+01     0.00000E+00     9.89664E-01          1.10186E-01
      -6945     1.47357E+01    -1.20211E+01     0.00000E+00     4.98002E-02         -2.30650E-01
      -6944     1.47314E+01    -1.20194E+01     0.00000E+00    -6.75305E-01         -6.17339E-02
      -6943     1.47272E+01    -1.20177E+01     0.00000E+00    -1.13221E+00         -1.82153E+00
      -6942     1.47230E+01    -1.20159E+01     0.00000E+00     6.09435E-01          7.19992E-01
      -6941     1.47187E+01    -1.20142E+01     0.00000E+00    -7.92333E-01         -2.19379E-01
      -6940     1.47145E+01    -1.20125E+01     0.00000E+00    -9.64162E-01         -6.66088E-02
      -6939     1.47102E+01    -1.20108E+01     0.00000E+00    -4.05406E-01          1.01466E+00
      -6938     1.47060E+01    -1.20090E+01     0.00000E+00    -1.96636E-01          1.73354E-01
      -6937     1.47018E+01    -1.20073E+01     0.00000E+00    -8.29612E-01         -1.48164E+00
      -6936     1.46975E+01    -1.20056E+01     0.00000E+00    -1.16592E+00         -3.91446E-01
      -6935     1.46933E+01    -1.20038E+01     0.00000E+00    -9.07450E-01          6.06360E-01
      -6934     1.46890E+01    -1.20021E+01     0.00000E+00    -1.45401E-01         -3.05579E-01
      -6933     1.46848E+01    -1.20004E+01     0.00000E+00     1.14468E+00          1.94243E-01
      -6932     1.46806E+01    -1.19986E+01     0.00000E+00     1.09427E+00          2.51634E-01
      -6931     1.46763E+01    -1.19969E+01     0.00000E+00     3.71412E-01          2.86440E-01
      -6930     1.46721E+01    -1.19952E+01     0.00000E+00    -3.51315E-01         -8.92121E-01
      -6929     1.46679E+01    -1.19934E+01     0.00000E+00    -5.95818E-01         -1.18066E+00
      -6928     1.46636E+01    -1.19917E+01     0.00000E+00    -9.26463E-03          2.86291E-01
      -6927     1.46594E+01    -1.19900E+01     0.00000E+00     1.14306E+00          2.71856E-01
      -6926     1.46552E+01    -1.19882E+01     0.00000E+00     4.93823E-01         -4.05793E-01
      -6925     1.46509E+01    -1.19865E+01     0.00000E+00     2.08115E-01         -6.29547E-01
      -6924     1.46467E+01    -1.19848E+01     0.00000E+00     9.26366E-01          4.75387E-01
      -6923     1.46425E+01    -1.19831E+01     0.00000E+00     3.42022E-01         -7.44608E-02
      -6922     1.46382E+01    -1.19813E+01     0.00000E+00     3.47747E-02         -3.37804E-01
      -6921     1.46340E+01    -1.19796E+01     0.00000E+00    -1.39835E-01          5.63915E-01
      -6920     1.46298E+01    -1.19779E+01     0.00000E+00    -8.25965E-01          4.42717E-01
      -6919     1.46256E+01    -1.19761E+01     0.00000E+00    -1.11728E+00         -5.75189E-01
      -6918     1.46213E+01    -1.19744E+01     0.00000E+00     1.11054E+00          7.96280E-02
      -6917     1.46171E+01    -1.19727E+01     0.00000E+00    -4.83186E-01         -6.24185E-01
      -6916     1.46129E+01    -1.19709E+01     0.00000E+00     2.63107E-01         -1.28346E-01
      -6915     1.46087E+01    -1.19692E+01     0.00000E+00    -4.86848E-01          6.02854E-01
      -6914     1.46044E+01    -1.19675E+01     0.00000E+00    -3.64035E-01          4.40939E-01
      -6913     1.46002E+01    -1.19657E+01     0.00000E+00    -1.17509E-02          4.93637E-02
      -6912     1.45960E+01    -1.19640E+01     0.00000E+00     7.31201E-01          6.18210E-02
      -6911     1.45918E+01    -1.19623E+01     0.00000E+00    -3.92674E-01         -4.10474E-01
      -6910     1.45875E+01    -1.19606E+01     0.00000E+00    -2.26886E-01          3.32093E-01
      -6909     1.45833E+01    -1.19588E+01     0.00000E+00    -5.71312E-01         -1.03196E+00
      -6908     1.45791E+01    -1.19571E+01     0.00000E+00     3.22779E-01         -3.07490E-01
      -6907     1.45749E+01    -1.19554E+01     0.00000E+00    -7.22259E-01         -1.75458E-01
      -6906     1.45707E+01    -1.19536E+01     0.00000E+00    -1.03387E+00         -1.07467E+00
      -6905     1.45664E+01    -1.19519E+01     0.00000E+00    -1.95310E-01          1.06182E+00
      -6904     1.45622E+01    -1.19502E+01     0.00000E+00     4.14915E-01         -1.15299E+00
      -6903     1.45580E+01    -1.19484E+01     0.00000E+00    -3.34914E-01          7.25900E-01
      -6902     1.45538E+01    -1.19467E+01     0.00000E+00     1.24472E+00         -6.28293E-01
      -6901     1.45496E+01    -1.19450E+01     0.00000E+00    -1.04300E-01          3.04477E-01
      -6900     1.45453E+01    -1.19432E+01     0.00000E+00    -5.65017E-01          8.54163E-01
      -6899     1.45411E+01    -1.19415E+01     0.00000E+00     1.11901E+00          7.10345E-01
      -6898     1.45369E+01    -1.19398E+01     0.00000E+00     7.27635E-01         -5.78906E-01
      -6897     1.45327E+01    -1.19381E+01     0.00000E+00    -8.48833E-02          1.05442E-01
      -6896     1.45285E+01    -1.19363E+01     0.00000E+00     2.89147E-01          7.85639E-02
      -6895     1.45243E+01    -1.19346E+01     0.00000E+00    -3.31113E-01          4.42642E-01
      -6894     1.45201E+01    -1.19329E+01     0.00000E+00    -1.05895E+00         -5.03531E-01
      -6893     1.45158E+01    -1.19311E+01     0.00000E+00     1.69756E-01         -9.32331E-01
      -6892     1.45116E+01    -1.19294E+01     0.00000E+00    -7.00246E-01          7.01576E-01
      -6891     1.45074E+01    -1.19277E+01     0.00000E+00     9.60955E-02          3.75830E-01
      -6890     1.45032E+01    -1.19259E+01     0.00000E+00    -1.55310E-01         -5.39948E-01
      -6889     1.44990E+01    -1.19242E+01     0.00000E+00     1.38717E-02         -2.47235E-01
      -6888     1.44948E+01    -1.19225E+01     0.00000E+00     2.21532E-01         -1.45850E+00
      -6887     1.44906E+01    -1.19207E+01     0.00000E+00     1.55701E-02         -1.01702E+00
      -6886     1.44864E+01    -1.19190E+01     0.00000E+00    -1.51735E+00         -2.15701E-01
      -6885     1.44822E+01    -1.19173E+01     0.00000E+00    -4.64097E-01          5.73591E-01
      -6884     1.44780E+01    -1.19156E+01     0.00000E+00     1.04160E+00          2.10056E-01
      -6883     1.44738E+01    -1.19138E+01     0.00000E+00     1.40137E-01          6.51655E-02
      -6882     1.44696E+01    -1.19121E+01     0.00000E+00     1.00795E+00          3.03596E-01
      -6881     1.44654E+01    -1.19104E+01     0.00000E+00     1.94853E-01          3.73998E-01
      -6880     1.44611E+01    -1.19086E+01     0.00000E+00    -4.77764E-01          3.77055E-01
      -6879     1.44569E+01    -1.19069E+01     0.00000E+00    -6.69359E-01         -3.87388E-02
      -6878     1.44527E+01    -1.19052E+01     0.00000E+00    -3.29261E-01          8.43943E-01
      -6877     1.44485E+01    -1.19034E+01     0.00000E+00     1.67588E-01          3.00516E-01
      -6876     1.44443E+01    -1.19017E+01     0.00000E+00    -5.48062E-01          4.29105E-01
      -6875     1.44401E+01    -1.19000E+01     0.00000E+00    -6.73135E-01         -5.63472E-01
      -6874     1.44359E+01    -1.18982E+01     0.00000E+00    -1.11256E+00          4.95983E-01
      -6873     1.44317E+01    -1.18965E+01     0.00000E+00     3.41070E-02         -5.86824E-02
      -6872     1.44275E+01    -1.18948E+01     0.00000E+00     7.45255E-02          3.19643E-01
      -6871     1.44233E+01    -1.18930E+01     0.00000E+00    -7.09687E-01          1.83004E-01
      -6870     1.44191E+01    -1.18913E+01     0.00000E+00    -3.09394E-01          2.67760E-01
      -6869     1.44149E+01    -1.18896E+01     0.00000E+00    -2.72872E-01         -1.00613E+00
      -6868     1.44107E+01    -1.18879E+01     0.00000E+00    -6.23688E-01         -1.02012E-01
      -6867     1.44065E+01    -1.18861E+01     0.00000E+00    -3.04992E-01          9.34798E-01
      -6866     1.44024E+01    -1.18844E+01     0.00000E+00    -2.41037E-01         -2.45467E-01
      -6865     1.43982E+01    -1.18827E+01     0.00000E+00    -3.25871E-01          1.45119E-01
      -6864     1.43940E+01    -1.18809E+01     0.00000E+00    -1.38239E+00          4.74586E-01
      -6863     1.43898E+01    -1.18792E+01     0.00000E+00    -5.65217E-01         -9.95624E-03
      -6862     1.43856E+01    -1.18775E+01     0.00000E+00    -3.72640E-01          7.99105E-01
      -6861     1.43814E+01    -1.18757E+01     0.00000E+00    -1.03549E+00          3.55678E-01
      -6860     1.43772E+01    -1.18740E+01     0.00000E+00    -6.45665E-01          1.07529E+00
      -6859     1.43730E+01    -1.18723E+01     0.00000E+00     1.35420E+00          2.38099E-01
      -6858     1.43688E+01    -1.18705E+01     0.00000E+00    -2.06836E-01         -6.98723E-01
      -6857     1.43646E+01    -1.18688E+01     0.00000E+00    -1.68471E+00         -4.89915E-01
      -6856     1.43604E+01    -1.18671E+01     0.00000E+00     1.82985E-01          6.39760E-01
      -6855     1.43562E+01    -1.18654E+01     0.00000E+00    -5.84677E-02          5.78870E-01
      -6854     1.43521E+01    -1.18636E+01     0.00000E+00     1.09777E+00         -1.42467E-01
      -6853     1.43479E+01    -1.18619E+01     0.00000E+00     9.82273E-02          5.98506E-01
      -6852     1.43437E+01    -1.18602E+01     0.00000E+00     1.27829E+00         -8.27204E-03
      -6851     1.43395E+01    -1.18584E+01     0.00000E+00    -7.55317E-01         -4.90672E-01
      -6850     1.43353E+01    -1.18567E+01     0.00000E+00    -4.76034E-01          4.36966E-01
      -6849     1.43311E+01    -1.18550E+01     0.00000E+00     1.38528E+00         -3.39663E-01
      -6848     1.43269E+01    -1.18532E+01     0.00000E+00    -4.18122E-01          1.11631E+00
      -6847     1.43228E+01    -1.18515E+01     0.00000E+00     1.08453E+00          1.59311E-02
      -6846     1.43186E+01    -1.18498E+01     0.00000E+00    -8.97362E-01         -6.60092E-01
      -6845     1.43144E+01    -1.18480E+01     0.00000E+00     1.75192E+00          1.22751E+00
      -6844     1.43102E+01    -1.18463E+01     0.00000E+00    -2.39260E-01          2.82036E-01
      -6843     1.43060E+01    -1.18446E+01     0.00000E+00    -4.06701E-01         -4.60010E-02
      -6842     1.43018E+01    -1.18429E+01     0.00000E+00     6.36594E-01         -4.06376E-01
      -6841     1.42977E+01    -1.18411E+01     0.00000E+00    -1.67564E+00         -2.17454E-01
      -6840     1.42935E+01    -1.18394E+01     0.00000E+00     4.41118E-01          9.18775E-01
      -6839     1.42893E+01    -1.18377E+01     0.00000E+00     6.05342E-01         -7.62473E-01
      -6838     1.42851E+01    -1.18359E+01     0.00000E+00    -7.00123E-01         -2.61810E-01
      -6837     1.42809E+01    -1.18342E+01     0.00000E+00    -5.48114E-01         -2.03339E-01
      -6836     1.42768E+01    -1.18325E+01     0.00000E+00    -1.90447E+00          1.58023E-02
      -6835     1.42726E+01    -1.18307E+01     0.00000E+00     1.19460E+00         -8.54533E-01
      -6834     1.42684E+01    -1.18290E+01     0.00000E+00     2.75402E-02          7.72193E-01
      -6833     1.42642E+01    -1.18273E+01     0.00000E+00    -8.41057E-01          6.91692E-01
      -6832     1.42601E+01    -1.18255E+01     0.00000E+00    -4.02223E-02          8.85482E-01
      -6831     1.42559E+01    -1.18238E+01     0.00000E+00    -1.04283E-01          1.16349E+00
      -6830     1.42517E+01    -1.18221E+01     0.00000E+00    -7.94005E-01         -5.56497E-01
      -6829     1.42475E+01    -1.18204E+01     0.00000E+00     6.07744E-01         -7.38648E-01
      -6828     1.42434E+01    -1.18186E+01     0.00000E+00    -1.21993E+00         -2.73332E-01
      -6827     1.42392E+01    -1.18169E+01     0.00000E+00    -6.52156E-01         -1.23522E+00
      -6826     1.42350E+01    -1.18152E+01     0.00000E+00     6.19384E-01         -1.16913E+00
      -6825     1.42309E+01    -1.18134E+01     0.00000E+00    -8.84596E-01         -8.90101E-02
      -6824     1.42267E+01    -1.18117E+01     0.00000E+00     5.22484E-01          9.32535E-01
      -6823     1.42225E+01    -1.18100E+01     0.00000E+00    -1.29838E-01         -3.71702E-01
      -6822     1.42184E+01    -1.18082E+01     0.00000E+00    -9.99009E-01          1.80206E+00
      -6821     1.42142E+01    -1.18065E+01     0.00000E+00     4.32320E-02         -1.83424E+00
      -6820     1.42100E+01    -1.18048E+01     0.00000E+00    -4.57376E-01         -8.44464E-02
      -6819     1.42059E+01    -1.18030E+01     0.00000E+00     6.46826E-01          6.97394E-01
      -6818     1.42017E+01    -1.18013E+01     0.00000E+00    -9.45483E-01         -6.92410E-01
      -6817     1.41975E+01    -1.17996E+01     0.00000E+00    -1.43860E+00         -5.88856E-01
      -6816     1.41934E+01    -1.17978E+01     0.00000E+00    -1.29912E-01          4.91544E-01
      -6815     1.41892E+01    -1.17961E+01     0.00000E+00    -3.77422E-01         -9.97979E-01
      -6814     1.41850E+01    -1.17944E+01     0.00000E+00     5.96857E-01          9.77512E-01
      -6813     1.41809E+01    -1.17927E+01     0.00000E+00    -1.00746E+00         -5.30789E-01
      -6812     1.41767E+01    -1.17909E+01     0.00000E+00    -8.99120E-01         -4.19554E-01
      -6811     1.41725E+01    -1.17892E+01     0.00000E+00     7.94271E-01         -1.29479E+00
      -6810     1.41684E+01    -1.17875E+01     0.00000E+00    -1.02158E+00          5.38996E-03
      -6809     1.41642E+01    -1.17857E+01     0.00000E+00    -4.48056E-01         -2.40006E-01
      -6808     1.41601E+01    -1.17840E+01     0.00000E+00    -1.53484E-01         -5.35009E-02
      -6807     1.41559E+01    -1.17823E+01     0.00000E+00     6.41846E-01          6.30393E-01
      -6806     1.41517E+01    -1.17805E+01     0.00000E+00     2.45471E-01         -1.46310E-01
      -6805     1.41476E+01    -1.17788E+01     0.00000E+00     6.86008E-01          8.06714E-01
      -6804     1.41434E+01    -1.17771E+01     0.00000E+00     7.52866E-03         -4.91017E-01
      -6803     1.41393E+01    -1.17753E+01     0.00000E+00     5.72751E-01         -4.68997E-01
      -6802     1.41351E+01    -1.17736E+01     0.00000E+00    -3.07213E-01         -7.96411E-01
      -6801     1.41310E+01    -1.17719E+01     0.00000E+00    -7.15550E-01          1.48775E+00
      -6800     1.41268E+01    -1.17702E+01     0.00000E+00     3.90698E-01          2.45421E-01
      -6799     1.41226E+01    -1.17684E+01     0.00000E+00     3.33655E-01         -2.07925E-01
      -6798     1.41185E+01    -1.17667E+01     0.00000E+00    -1.14297E+00          7.72537E-01
      -6797     1.41143E+01    -1.17650E+01     0.00000E+00     1.68742E-01          1.02348E-01
      -6796     1.41102E+01    -1.17632E+01     0.00000E+00    -9.28053E-01         -1.26142E-01
      -6795     1.41060E+01    -1.17615E+01     0.00000E+00    -3.30181E-01          5.05099E-01
      -6794     1.41019E+01    -1.17598E+01     0.00000E+00     3.41368E-01          1.31862E+00
      -6793     1.40977E+01    -1.17580E+01     0.00000E+00    -6.48476E-02         -1.33199E+00
      -6792     1.40936E+01    -1.17563E+01     0.00000E+00    -9.95133E-01         -1.79012E+00
      -6791     1.40894E+01    -1.17546E+01     0.00000E+00     8.10159E-01         -9.04609E-01
      -6790     1.40853E+01    -1.17528E+01     0.00000E+00     2.31155E-01         -1.30238E-01
      -6789     1.40811E+01    -1.17511E+01     0.00000E+00     8.68029E-02         -9.91434E-02
      -6788     1.40770E+01    -1.17494E+01     0.00000E+00    -9.61955E-01         -1.36307E-01
      -6787     1.40728E+01    -1.17477E+01     0.00000E+00     5.32074E-01         -2.09090E-01
      -6786     1.40687E+01    -1.17459E+01     0.00000E+00     6.04568E-01          7.15967E-01
      -6785     1.40645E+01    -1.17442E+01     0.00000E+00     5.46273E-01         -6.12510E-02
      -6784     1.40604E+01    -1.17425E+01     0.00000E+00     4.60688E-02         -5.37852E-01
      -6783     1.40562E+01    -1.17407E+01     0.00000E+00    -1.06030E-01         -2.22526E+00
      -6782     1.40521E+01    -1.17390E+01     0.00000E+00     1.75354E+00         -3.93811E-02
      -6781     1.40480E+01    -1.17373E+01     0.00000E+00     4.43622E-02         -4.78286E-01
      -6780     1.40438E+01    -1.17355E+01     0.00000E+00     2.34876E-01          1.53116E-01
      -6779     1.40397E+01    -1.17338E+01     0.00000E+00     1.62260E+00          3.05401E-01
      -6778     1.40355E+01    -1.17321E+01     0.00000E+00     1.51173E+00         -3.22324E-01
      -6777     1.40314E+01    -1.17303E+01     0.00000E+00    -3.62457E-01          1.33537E+00
      -6776     1.40273E+01    -1.17286E+01     0.00000E+00     1.14001E+00         -5.00770E-01
      -6775     1.40231E+01    -1.17269E+01     0.00000E+00    -2.30983E-01          4.68254E-01
      -6774     1.40190E+01    -1.17252E+01     0.00000E+00    -1.38797E+00         -4.01825E-01
      -6773     1.40148E+01    -1.17234E+01     0.00000E+00     3.27747E-01          1.16581E+00
      -6772     1.40107E+01    -1.17217E+01     0.00000E+00     1.09761E+00          4.70462E-01
      -6771     1.40066E+01    -1.17200E+01     0.00000E+00    -6.16744E-01         -7.52001E-02
      -6770     1.40024E+01    -1.17182E+01     0.00000E+00     1.37358E-01          1.26963E-01
      -6769     1.39983E+01    -1.17165E+01     0.00000E+00     1.37425E-01          1.00929E+00
      -6768     1.39942E+01    -1.17148E+01     0.00000E+00     6.43031E-01         -7.15591E-01
      -6767     1.39900E+01    -1.17130E+01     0.00000E+00    -5.52696E-01          2.97267E-01
      -6766     1.39859E+01    -1.17113E+01     0.00000E+00     4.03674E-01         -1.97435E-02
      -6765     1.39817E+01    -1.17096E+01     0.00000E+00     1.31152E+00         -4.00105E-01
      -6764     1.39776E+01    -1.17078E+01     0.00000E+00     2.20689E-01          1.23090E+00
      -6763     1.39735E+01    -1.17061E+01     0.00000E+00    -5.03063E-01          3.67918E-01
      -6762     1.39694E+01    -1.17044E+01     0.00000E+00     6.44348E-01         -4.85657E-01
      -6761     1.39652E+01    -1.17027E+01     0.00000E+00     2.30383E+00          1.04866E-01
      -6760     1.39611E+01    -1.17009E+01     0.00000E+00    -7.82054E-01         -1.67792E-01
      -6759     1.39570E+01    -1.16992E+01     0.00000E+00    -6.23007E-01          6.42190E-01
      -6758     1.39528E+01    -1.16975E+01     0.00000E+00     8.41098E-01         -9.69733E-01
      -6757     1.39487E+01    -1.16957E+01     0.00000E+00     1.12641E+00          3.06323E-01
      -6756     1.39446E+01    -1.16940E+01     0.00000E+00     1.34067E+00         -6.94041E-01
      -6755     1.39404E+01    -1.16923E+01     0.00000E+00     1.10211E+00          3.74207E-01
      -6754     1.39363E+01    -1.16905E+01     0.00000E+00     4.42248E-01          8.91076E-01
      -6753     1.39322E+01    -1.16888E+01     0.00000E+00     4.20255E-01          1.65351E+00
      -6752     1.39281E+01    -1.16871E+01     0.00000E+00    -1.03466E+00         -7.38639E-02
      -6751     1.39239E+01    -1.16853E+01     0.00000E+00     3.85711E-01          1.58746E+00
      -6750     1.39198E+01    -1.16836E+01     0.00000E+00     5.26677E-01          8.57080E-01
      -6749     1.39157E+01    -1.16819E+01     0.00000E+00    -4.42997E-01         -1.49799E+00
      -6748     1.39116E+01    -1.16801E+01     0.00000E+00    -1.65966E-01          1.81882E-01
      -6747     1.39074E+01    -1.16784E+01     0.00000E+00    -6.35352E-01         -6.40840E-01
      -6746     1.39033E+01    -1.16767E+01     0.00000E+00     1.17691E-01         -4.42485E-01
      -6745     1.38992E+01    -1.16750E+01     0.00000E+00    -6.46466E-01         -5.71277E-01
      -6744     1.38951E+01    -1.16732E+01     0.00000E+00     7.24418E-01         -5.22647E-01
      -6743     1.38910E+01    -1.16715E+01     0.00000E+00     9.55088E-01          8.84209E-01
      -6742     1.38868E+01    -1.16698E+01     0.00000E+00     8.15763E-01          1.37476E-01
      -6741     1.38827E+01    -1.16680E+01     0.00000E+00    -1.01612E+00          8.10361E-01
      -6740     1.38786E+01    -1.16663E+01     0.00000E+00    -2.99797E-01         -4.87937E-01
      -6739     1.38745E+01    -1.16646E+01     0.00000E+00     9.30607E-01          5.83295E-01
      -6738     1.38704E+01    -1.16628E+01     0.00000E+00     5.90395E-02          8.28647E-01
      -6737     1.38662E+01    -1.16611E+01     0.00000E+00     4.26881E-02         -7.96715E-01
      -6736     1.38621E+01    -1.16594E+01     0.00000E+00     1.25410E-01          3.74857E-01
      -6735     1.38580E+01    -1.16576E+01     0.00000E+00    -1.36024E+00          2.97094E-01
      -6734     1.38539E+01    -1.16559E+01     0.00000E+00    -8.02909E-01          2.87411E-01
      -6733     1.38498E+01    -1.16542E+01     0.00000E+00     3.94162E-01          5.81571E-01
      -6732     1.38457E+01    -1.16525E+01     0.00000E+00    -7.30535E-01          5.28485E-01
      -6731     1.38416E+01    -1.16507E+01     0.00000E+00     5.96889E-01         -2.92332E-02
      -6730     1.38374E+01    -1.16490E+01     0.00000E+00     6.63172E-01         -1.58195E-02
      -6729     1.38333E+01    -1.16473E+01     0.00000E+00     1.02202E+00         -9.53718E-01
      -6728     1.38292E+01    -1.16455E+01     0.00000E+00    -4.48670E-02         -7.68227E-01
      -6727     1.38251E+01    -1.16438E+01     0.00000E+00     3.57966E-01          3.86346E-01
      -6726     1.38210E+01    -1.16421E+01     0.00000E+00     4.70556E-01          4.31321E-01
      -6725     1.38169E+01    -1.16403E+01     0.00000E+00     1.01886E-03         -7.40523E-01
      -6724     1.38128E+01    -1.16386E+01     0.00000E+00    -1.48365E-01          6.88505E-01
      -6723     1.38087E+01    -1.16369E+01     0.00000E+00     1.21932E+00          1.40827E+00
      -6722     1.38046E+01    -1.16351E+01     0.00000E+00    -7.87405E-01         -2.77943E-01
      -6721     1.38005E+01    -1.16334E+01     0.00000E+00     5.74909E-01         -4.85943E-01
      -6720     1.37964E+01    -1.16317E+01     0.00000E+00     4.91169E-01          6.36188E-01
      -6719     1.37922E+01    -1.16300E+01     0.00000E+00    -6.14926E-01         -5.79597E-02
      -6718     1.37881E+01    -1.16282E+01     0.00000E+00     1.31161E+00         -4.71098E-01
      -6717     1.37840E+01    -1.16265E+01     0.00000E+00    -5.23926E-01         -4.78805E-01
      -6716     1.37799E+01    -1.16248E+01     0.00000E+00    -1.23212E-01         -9.61642E-01
      -6715     1.37758E+01    -1.16230E+01     0.00000E+00     6.80371E-01         -7.89582E-01
      -6714     1.37717E+01    -1.16213E+01     0.00000E+00     1.48298E-01         -6.28737E-02
      -6713     1.37676E+01    -1.16196E+01     0.00000E+00    -3.04973E-02          2.65417E-01
      -6712     1.37635E+01    -1.16178E+01     0.00000E+00     7.62025E-01         -1.99025E-01
      -6711     1.37594E+01    -1.16161E+01     0.00000E+00     1.89928E-02         -1.77799E-01
      -6710     1.37553E+01    -1.16144E+01     0.00000E+00     3.83281E-01          6.39645E-01
      -6709     1.37512E+01    -1.16126E+01     0.00000E+00     1.32047E+00         -4.98943E-01
      -6708     1.37471E+01    -1.16109E+01     0.00000E+00    -1.56737E+00          8.58469E-01
      -6707     1.37430E+01    -1.16092E+01     0.00000E+00    -5.28244E-01          1.07144E+00
      -6706     1.37389E+01    -1.16074E+01     0.00000E+00    -1.40690E-01          8.44176E-02
      -6705     1.37348E+01    -1.16057E+01     0.00000E+00    -3.62428E-04          4.46379E-02
      -6704     1.37307E+01    -1.16040E+01     0.00000E+00     6.94458E-01         -1.32266E+00
      -6703     1.37266E+01    -1.16023E+01     0.00000E+00     1.19678E-01         -2.69977E-01
      -6702     1.37225E+01    -1.16005E+01     0.00000E+00    -4.04386E-01          6.41884E-02
      -6701     1.37185E+01    -1.15988E+01     0.00000E+00     5.33585E-01         -5.64335E-01
      -6700     1.37144E+01    -1.15971E+01     0.00000E+00     5.61553E-01         -1.09575E+00
      -6699     1.37103E+01    -1.15953E+01     0.00000E+00     2.14724E-01         -4.23950E-01
      -6698     1.37062E+01    -1.15936E+01     0.00000E+00     3.82309E-01         -4.33335E-01
      -6697     1.37021E+01    -1.15919E+01     0.00000E+00    -4.60439E-01         -1.54431E-01
      -6696     1.36980E+01    -1.15901E+01     0.00000E+00    -1.49866E+00         -3.14391E-01
      -6695     1.36939E+01    -1.15884E+01     0.00000E+00     1.19618E-01          6.43975E-01
      -6694     1.36898E+01    -1.15867E+01     0.00000E+00     8.15677E-02          5.71071E-01
      -6693     1.36857E+01    -1.15849E+01     0.00000E+00    -2.26778E-01         -1.05832E+00
      -6692     1.36816E+01    -1.15832E+01     0.00000E+00    -1.05674E-01          4.62229E-01
      -6691     1.36775E+01    -1.15815E+01     0.00000E+00    -1.57199E+00          1.19222E+00
      -6690     1.36734E+01    -1.15798E+01     0.00000E+00    -7.55739E-01          5.91459E-01
      -6689     1.36694E+01    -1.15780E+01     0.00000E+00     1.64907E-01         -1.02098E+00
      -6688     1.36653E+01    -1.15763E+01     0.00000E+00    -2.65683E-01          6.13618E-01
      -6687     1.36612E+01    -1.15746E+01     0.00000E+00    -2.35847E-01          1.95682E-01
      -6686     1.36571E+01    -1.15728E+01     0.00000E+00    -4.28694E-01         -1.05280E+00
      -6685     1.36530E+01    -1.15711E+01     0.00000E+00     1.16482E-01          6.87847E-01
      -6684     1.36489E+01    -1.15694E+01     0.00000E+00     2.87512E-01         -2.17620E-01
      -6683     1.36449E+01    -1.15676E+01     0.00000E+00     1.27946E-01          5.38945E-01
      -6682     1.36408E+01    -1.15659E+01     0.00000E+00    -8.20014E-01          1.82775E-02
[...]
       7056     1.52105E+01     1.22133E+01     0.00000E+00     1.98061E-01         -5.89455E-01
       7057     1.52148E+01     1.22150E+01     0.00000E+00     1.55877E+00          5.23716E-01
       7058     1.52191E+01     1.22167E+01     0.00000E+00    -1.35672E-01          1.32979E-01
       7059     1.52234E+01     1.22185E+01     0.00000E+00    -2.02170E-01          3.11982E-01
       7060     1.52277E+01     1.22202E+01     0.00000E+00     3.01607E-01         -1.95235E-01
       7061     1.52320E+01     1.22219E+01     0.00000E+00     1.35965E-01         -5.15973E-01
       7062     1.52364E+01     1.22237E+01     0.00000E+00    -6.83272E-01          7.74455E-01
       7063     1.52407E+01     1.22254E+01     0.00000E+00     1.28756E+00          6.05596E-01
       7064     1.52450E+01     1.22271E+01     0.00000E+00    -4.10347E-01          3.47304E-01
       7065     1.52493E+01     1.22288E+01     0.00000E+00    -2.65299E-01         -2.38556E-01
       7066     1.52536E+01     1.22306E+01     0.00000E+00    -1.23103E+00         -9.40086E-02
       7067     1.52579E+01     1.22323E+01     0.00000E+00     1.04777E-01          3.79976E-01
       7068     1.52623E+01     1.22340E+01     0.00000E+00     1.06734E-01         -7.53937E-01
       7069     1.52666E+01     1.22358E+01     0.00000E+00     2.17158E-01          8.28347E-02
       7070     1.52709E+01     1.22375E+01     0.00000E+00    -1.97460E-02          1.98534E-01
       7071     1.52752E+01     1.22392E+01     0.00000E+00    -6.10141E-01          6.44645E-01
       7072     1.52795E+01     1.22410E+01     0.00000E+00    -4.27483E-01          1.78910E-01
       7073     1.52839E+01     1.22427E+01     0.00000E+00     9.74089E-01          5.04972E-01
       7074     1.52882E+01     1.22444E+01     0.00000E+00     5.93522E-01          3.86900E-01
       7075     1.52925E+01     1.22462E+01     0.00000E+00    -9.17898E-01         -2.44326E-01
       7076     1.52968E+01     1.22479E+01     0.00000E+00     9.14930E-02          2.09622E-01
       7077     1.53012E+01     1.22496E+01     0.00000E+00    -1.24103E+00          4.13446E-01
       7078     1.53055E+01     1.22513E+01     0.00000E+00    -1.63766E-01         -2.75991E-01
       7079     1.53098E+01     1.22531E+01     0.00000E+00    -3.40747E-01          5.06677E-01
       7080     1.53141E+01     1.22548E+01     0.00000E+00    -4.43416E-01         -3.89877E-01
       7081     1.53185E+01     1.22565E+01     0.00000E+00     8.71271E-01          8.39454E-01
       7082     1.53228E+01     1.22583E+01     0.00000E+00    -8.63108E-01         -6.36194E-01
       7083     1.53271E+01     1.22600E+01     0.00000E+00    -3.57393E-01         -3.18218E-01
       7084     1.53314E+01     1.22617E+01     0.00000E+00     4.19639E-01          8.53079E-01
       7085     1.53358E+01     1.22635E+01     0.00000E+00     4.58708E-01          3.08027E-01
       7086     1.53401E+01     1.22652E+01     0.00000E+00     1.28321E-02         -1.00815E+00
       7087     1.53444E+01     1.22669E+01     0.00000E+00    -1.15405E+00         -1.38421E+00
       7088     1.53488E+01     1.22687E+01     0.00000E+00    -4.67663E-01         -6.00610E-01
       7089     1.53531E+01     1.22704E+01     0.00000E+00    -7.37413E-01         -7.53259E-01
       7090     1.53574E+01     1.22721E+01     0.00000E+00     3.68079E-01          4.12840E-01
       7091     1.53618E+01     1.22738E+01     0.00000E+00     9.24084E-01          6.31449E-01
       7092     1.53661E+01     1.22756E+01     0.00000E+00    -8.52049E-01         -8.46628E-01
       7093     1.53704E+01     1.22773E+01     0.00000E+00     8.97061E-01          3.39986E-01
       7094     1.53748E+01     1.22790E+01     0.00000E+00     9.88570E-01         -5.38103E-02
       7095     1.53791E+01     1.22808E+01     0.00000E+00    -4.72021E-01          4.55935E-01
       7096     1.53834E+01     1.22825E+01     0.00000E+00    -1.59163E-01          4.69602E-01
       7097     1.53878E+01     1.22842E+01     0.00000E+00    -9.46791E-01         -6.33246E-01
       7098     1.53921E+01     1.22860E+01     0.00000E+00    -3.95413E-01          7.96185E-01
       7099     1.53964E+01     1.22877E+01     0.00000E+00     5.85345E-01          1.18925E+00
       7100     1.54008E+01     1.22894E+01     0.00000E+00     5.55330E-01         -1.11818E+00
       7101     1.54051E+01     1.22912E+01     0.00000E+00    -4.45209E-01         -1.09252E+00
       7102     1.54095E+01     1.22929E+01     0.00000E+00     3.18297E-01          1.13619E-01
       7103     1.54138E+01     1.22946E+01     0.00000E+00     5.20862E-02         -2.98251E-01
       7104     1.54181E+01     1.22964E+01     0.00000E+00     6.00118E-02          4.16568E-01
       7105     1.54225E+01     1.22981E+01     0.00000E+00    -5.94670E-01         -2.09434E-01
       7106     1.54268E+01     1.22998E+01     0.00000E+00     2.18581E-01         -5.28286E-01
       7107     1.54312E+01     1.23015E+01     0.00000E+00     7.11198E-02         -1.54023E-01
       7108     1.54355E+01     1.23033E+01     0.00000E+00    -1.49515E-01         -1.47050E+00
       7109     1.54398E+01     1.23050E+01     0.00000E+00    -4.85039E-01         -6.29922E-01
       7110     1.54442E+01     1.23067E+01     0.00000E+00    -9.77108E-01          1.01811E+00
       7111     1.54485E+01     1.23085E+01     0.00000E+00    -9.13190E-01          5.62249E-02
       7112     1.54529E+01     1.23102E+01     0.00000E+00     9.83916E-01          1.89211E-01
       7113     1.54572E+01     1.23119E+01     0.00000E+00    -2.83328E-01         -1.25573E-01
       7114     1.54616E+01     1.23137E+01     0.00000E+00    -6.05561E-01         -2.58753E-01
       7115     1.54659E+01     1.23154E+01     0.00000E+00    -5.63706E-01         -1.15417E+00
       7116     1.54703E+01     1.23171E+01     0.00000E+00     1.55081E+00         -3.90853E-02
       7117     1.54746E+01     1.23189E+01     0.00000E+00     4.63644E-01         -2.45991E-01
       7118     1.54790E+01     1.23206E+01     0.00000E+00     7.34576E-01         -1.59093E-01
       7119     1.54833E+01     1.23223E+01     0.00000E+00     9.80381E-01          4.47681E-01
       7120     1.54877E+01     1.23240E+01     0.00000E+00     8.44516E-04          3.34076E-01
       7121     1.54920E+01     1.23258E+01     0.00000E+00     8.06937E-01         -5.48199E-01
       7122     1.54964E+01     1.23275E+01     0.00000E+00    -1.59664E-01          8.97020E-01
       7123     1.55007E+01     1.23292E+01     0.00000E+00     3.10715E-01          6.53228E-01
       7124     1.55051E+01     1.23310E+01     0.00000E+00     5.34120E-01          9.28807E-01
       7125     1.55094E+01     1.23327E+01     0.00000E+00    -1.57382E-01          8.64083E-01
       7126     1.55138E+01     1.23344E+01     0.00000E+00    -5.11514E-01         -2.11150E-01
       7127     1.55181E+01     1.23362E+01     0.00000E+00    -4.43169E-01         -3.22972E-01
       7128     1.55225E+01     1.23379E+01     0.00000E+00     5.60043E-01         -1.25263E-01
       7129     1.55268E+01     1.23396E+01     0.00000E+00     5.17803E-01         -1.25732E-01
       7130     1.55312E+01     1.23414E+01     0.00000E+00    -9.79139E-01          8.28857E-01
       7131     1.55356E+01     1.23431E+01     0.00000E+00     2.26878E-01          1.04471E+00
       7132     1.55399E+01     1.23448E+01     0.00000E+00     1.81060E-01         -2.07524E-01
       7133     1.55443E+01     1.23465E+01     0.00000E+00    -4.86069E-01         -1.36942E+00
       7134     1.55486E+01     1.23483E+01     0.00000E+00    -2.88208E-01         -4.42831E-02
       7135     1.55530E+01     1.23500E+01     0.00000E+00    -4.56731E-01         -8.91363E-01
       7136     1.55573E+01     1.23517E+01     0.00000E+00     9.53805E-01          1.65031E-01
       7137     1.55617E+01     1.23535E+01     0.00000E+00     4.07684E-01          3.10067E-01
       7138     1.55661E+01     1.23552E+01     0.00000E+00    -4.23348E-01         -1.36862E-01
       7139     1.55704E+01     1.23569E+01     0.00000E+00    -2.37289E-01          7.10117E-01
       7140     1.55748E+01     1.23587E+01     0.00000E+00     5.70657E-01          4.83447E-01
       7141     1.55792E+01     1.23604E+01     0.00000E+00     6.55326E-01          2.30103E-01
       7142     1.55835E+01     1.23621E+01     0.00000E+00    -7.15388E-01          2.85392E-01
       7143     1.55879E+01     1.23639E+01     0.00000E+00     5.61872E-01          2.32560E-02
       7144     1.55922E+01     1.23656E+01     0.00000E+00    -2.79391E-01         -3.57991E-01
       7145     1.55966E+01     1.23673E+01     0.00000E+00     5.16294E-02         -3.57685E-01
       7146     1.56010E+01     1.23690E+01     0.00000E+00     9.21794E-01          1.10019E+00
       7147     1.56053E+01     1.23708E+01     0.00000E+00    -1.69353E+00         -6.77236E-02
       7148     1.56097E+01     1.23725E+01     0.00000E+00    -5.34801E-01          1.01985E+00
       7149     1.56141E+01     1.23742E+01     0.00000E+00     8.09420E-04         -4.25857E-01
       7150     1.56184E+01     1.23760E+01     0.00000E+00    -1.06024E-01         -3.11866E-01
       7151     1.56228E+01     1.23777E+01     0.00000E+00     5.84907E-01         -6.99840E-01
       7152     1.56272E+01     1.23794E+01     0.00000E+00    -6.32465E-01         -1.25031E+00
       7153     1.56316E+01     1.23812E+01     0.00000E+00    -2.34924E-01         -2.11591E-01
       7154     1.56359E+01     1.23829E+01     0.00000E+00     5.92909E-01         -7.77158E-01
       7155     1.56403E+01     1.23846E+01     0.00000E+00    -2.84813E-01         -5.54096E-01
       7156     1.56447E+01     1.23864E+01     0.00000E+00     4.28738E-01         -7.43644E-02
       7157     1.56490E+01     1.23881E+01     0.00000E+00     2.66659E-01         -1.55051E-01
       7158     1.56534E+01     1.23898E+01     0.00000E+00    -2.27638E-01          3.31652E-01
       7159     1.56578E+01     1.23916E+01     0.00000E+00     5.14621E-01          3.44715E-01
       7160     1.56622E+01     1.23933E+01     0.00000E+00    -1.63057E-01          2.65535E-01
       7161     1.56665E+01     1.23950E+01     0.00000E+00    -7.86765E-02         -6.72624E-01
       7162     1.56709E+01     1.23967E+01     0.00000E+00    -1.27044E+00         -2.44190E-01
       7163     1.56753E+01     1.23985E+01     0.00000E+00    -4.49839E-01         -1.91857E+00
       7164     1.56797E+01     1.24002E+01     0.00000E+00    -6.26955E-02         -5.51053E-01
       7165     1.56841E+01     1.24019E+01     0.00000E+00     3.82631E-01          6.12706E-01
       7166     1.56884E+01     1.24037E+01     0.00000E+00     7.39262E-01         -4.38873E-01
       7167     1.56928E+01     1.24054E+01     0.00000E+00    -1.34123E-02          2.02239E-01
       7168     1.56972E+01     1.24071E+01     0.00000E+00     2.55791E-01         -5.60580E-01
       7169     1.57016E+01     1.24089E+01     0.00000E+00    -1.29126E+00          4.41412E-01
       7170     1.57059E+01     1.24106E+01     0.00000E+00     1.21510E+00         -6.02372E-01
       7171     1.57103E+01     1.24123E+01     0.00000E+00    -2.74688E-02         -1.80905E+00
       7172     1.57147E+01     1.24141E+01     0.00000E+00     5.08074E-01          7.26179E-02
       7173     1.57191E+01     1.24158E+01     0.00000E+00    -9.74981E-01         -1.40649E+00
       7174     1.57235E+01     1.24175E+01     0.00000E+00    -1.88587E-01         -8.31714E-01
       7175     1.57279E+01     1.24192E+01     0.00000E+00     1.10628E+00         -6.46405E-02
       7176     1.57322E+01     1.24210E+01     0.00000E+00     5.30172E-01          4.86397E-02
       7177     1.57366E+01     1.24227E+01     0.00000E+00    -1.24130E-01          2.19601E-01
       7178     1.57410E+01     1.24244E+01     0.00000E+00    -6.99167E-01         -5.58611E-01
       7179     1.57454E+01     1.24262E+01     0.00000E+00    -2.07902E-01          9.83621E-01
       7180     1.57498E+01     1.24279E+01     0.00000E+00     7.88462E-01         -1.30091E-01
       7181     1.57542E+01     1.24296E+01     0.00000E+00    -2.30322E-01         -4.36692E-01
       7182     1.57586E+01     1.24314E+01     0.00000E+00    -1.60158E-01          7.49890E-01
       7183     1.57630E+01     1.24331E+01     0.00000E+00     1.92687E-01          1.56020E-01
       7184     1.57673E+01     1.24348E+01     0.00000E+00    -5.95921E-01          6.54214E-01
       7185     1.57717E+01     1.24366E+01     0.00000E+00    -2.63941E-01          5.25135E-01
       7186     1.57761E+01     1.24383E+01     0.00000E+00     5.30082E-01          5.03393E-01
       7187     1.57805E+01     1.24400E+01     0.00000E+00    -2.63115E-01          1.19654E-01
       7188     1.57849E+01     1.24417E+01     0.00000E+00    -1.18879E+00         -3.71529E-02
       7189     1.57893E+01     1.24435E+01     0.00000E+00    -5.41557E-01          6.69943E-01
       7190     1.57937E+01     1.24452E+01     0.00000E+00     2.64018E-01          6.55235E-01
       7191     1.57981E+01     1.24469E+01     0.00000E+00    -1.52587E-01          2.14332E-01
       7192     1.58025E+01     1.24487E+01     0.00000E+00    -3.60989E-01          1.14467E-01
       7193     1.58069E+01     1.24504E+01     0.00000E+00     2.89445E-01          4.66235E-01
       7194     1.58113E+01     1.24521E+01     0.00000E+00     7.78654E-01         -7.19766E-01
       7195     1.58157E+01     1.24539E+01     0.00000E+00     1.24974E+00          3.07611E-01
       7196     1.58201E+01     1.24556E+01     0.00000E+00     5.18330E-01         -1.45710E+00
       7197     1.58245E+01     1.24573E+01     0.00000E+00    -1.65784E-01         -1.11568E+00
       7198     1.58289E+01     1.24591E+01     0.00000E+00     3.57831E-01         -2.47109E-02
       7199     1.58333E+01     1.24608E+01     0.00000E+00    -3.26711E-01          4.73230E-02
       7200     1.58377E+01     1.24625E+01     0.00000E+00     4.60198E-01          2.98119E-01
       7201     1.58421E+01     1.24642E+01     0.00000E+00    -6.43063E-01          7.56501E-01
       7202     1.58465E+01     1.24660E+01     0.00000E+00    -4.81052E-01          1.33888E+00
       7203     1.58509E+01     1.24677E+01     0.00000E+00    -1.97641E+00         -5.51581E-01
       7204     1.58553E+01     1.24694E+01     0.00000E+00    -7.44082E-01          8.73798E-02
       7205     1.58597E+01     1.24712E+01     0.00000E+00    -5.69494E-01          2.50288E-01
       7206     1.58641E+01     1.24729E+01     0.00000E+00    -7.79773E-01         -1.17863E+00
       7207     1.58685E+01     1.24746E+01     0.00000E+00     2.60168E-01         -4.81569E-01
       7208     1.58729E+01     1.24764E+01     0.00000E+00     2.34316E-01          7.87466E-01
       7209     1.58773E+01     1.24781E+01     0.00000E+00     2.46107E-01          4.64592E-01
       7210     1.58817E+01     1.24798E+01     0.00000E+00    -4.37029E-01         -4.56216E-01
       7211     1.58861E+01     1.24816E+01     0.00000E+00    -2.26652E-01         -6.29538E-01
       7212     1.58905E+01     1.24833E+01     0.00000E+00     2.89499E-01          2.91670E-01
       7213     1.58949E+01     1.24850E+01     0.00000E+00    -2.33501E-01          1.56324E-01
       7214     1.58993E+01     1.24867E+01     0.00000E+00    -6.52977E-01         -4.85960E-01
       7215     1.59037E+01     1.24885E+01     0.00000E+00    -7.25951E-01         -5.56666E-01
       7216     1.59081E+01     1.24902E+01     0.00000E+00    -1.07397E-01          8.33192E-01
       7217     1.59125E+01     1.24919E+01     0.00000E+00    -8.18556E-01         -5.27845E-01
       7218     1.59169E+01     1.24937E+01     0.00000E+00     7.03258E-01          3.41255E-01
       7219     1.59214E+01     1.24954E+01     0.00000E+00    -7.06164E-01          1.37031E-01
       7220     1.59258E+01     1.24971E+01     0.00000E+00     1.26692E-01         -4.34710E-01
       7221     1.59302E+01     1.24989E+01     0.00000E+00     8.66526E-02         -1.03870E+00
       7222     1.59346E+01     1.25006E+01     0.00000E+00     1.23702E+00         -8.42359E-01
       7223     1.59390E+01     1.25023E+01     0.00000E+00    -3.58635E-01          1.25956E+00
       7224     1.59434E+01     1.25041E+01     0.00000E+00    -1.26368E-01         -3.76879E-01
       7225     1.59478E+01     1.25058E+01     0.00000E+00    -3.70748E-01         -1.33725E+00
       7226     1.59522E+01     1.25075E+01     0.00000E+00     1.09525E+00          8.13752E-02
       7227     1.59567E+01     1.25093E+01     0.00000E+00     3.25693E-01         -3.50099E-01
       7228     1.59611E+01     1.25110E+01     0.00000E+00     4.45009E-01         -1.27256E+00
       7229     1.59655E+01     1.25127E+01     0.00000E+00     4.93573E-01          3.50597E-01
       7230     1.59699E+01     1.25144E+01     0.00000E+00    -9.72382E-01          2.74934E-01
       7231     1.59743E+01     1.25162E+01     0.00000E+00     5.00287E-01          2.84432E-01
       7232     1.59787E+01     1.25179E+01     0.00000E+00    -6.05974E-01         -6.90392E-01
       7233     1.59832E+01     1.25196E+01     0.00000E+00     8.01518E-01          5.15593E-01
       7234     1.59876E+01     1.25214E+01     0.00000E+00     7.31591E-01          6.64210E-01
       7235     1.59920E+01     1.25231E+01     0.00000E+00    -9.38115E-01          3.96786E-01
       7236     1.59964E+01     1.25248E+01     0.00000E+00    -6.93029E-01         -4.39341E-01
       7237     1.60008E+01     1.25266E+01     0.00000E+00    -8.15663E-01         -1.05607E+00
       7238     1.60053E+01     1.25283E+01     0.00000E+00     1.37681E-01         -7.04417E-01
       7239     1.60097E+01     1.25300E+01     0.00000E+00     7.39369E-01         -6.56293E-01
       7240     1.60141E+01     1.25318E+01     0.00000E+00     4.52240E-01          9.40303E-01
       7241     1.60185E+01     1.25335E+01     0.00000E+00     1.02280E-01         -6.88773E-03
       7242     1.60230E+01     1.25352E+01     0.00000E+00    -2.92410E-01          1.08904E-01
       7243     1.60274E+01     1.25369E+01     0.00000E+00     6.47422E-02         -3.49479E-01
       7244     1.60318E+01     1.25387E+01     0.00000E+00    -1.72945E-01          4.44753E-01
       7245     1.60362E+01     1.25404E+01     0.00000E+00     1.63943E-01          3.21092E-02
       7246     1.60407E+01     1.25421E+01     0.00000E+00    -3.07848E-01          1.14814E-01
       7247     1.60451E+01     1.25439E+01     0.00000E+00     2.37257E-01         -2.55949E-02
       7248     1.60495E+01     1.25456E+01     0.00000E+00     4.04853E-01          3.07318E-01
       7249     1.60540E+01     1.25473E+01     0.00000E+00     7.76747E-01          1.13383E+00
       7250     1.60584E+01     1.25491E+01     0.00000E+00    -6.00930E-02          2.64812E-01
       7251     1.60628E+01     1.25508E+01     0.00000E+00     8.44786E-01         -4.49717E-01
       7252     1.60672E+01     1.25525E+01     0.00000E+00     9.00704E-01         -1.20231E-01
       7253     1.60717E+01     1.25543E+01     0.00000E+00     4.77325E-01         -4.80745E-02
       7254     1.60761E+01     1.25560E+01     0.00000E+00     1.31872E-01         -3.86786E-01
       7255     1.60805E+01     1.25577E+01     0.00000E+00     4.57944E-01         -8.11973E-01
       7256     1.60850E+01     1.25594E+01     0.00000E+00     9.10107E-01         -4.37642E-01
       7257     1.60894E+01     1.25612E+01     0.00000E+00     3.22073E-01         -4.31725E-02
       7258     1.60938E+01     1.25629E+01     0.00000E+00    -4.66579E-02         -4.01255E-01
       7259     1.60983E+01     1.25646E+01     0.00000E+00     5.23039E-01         -7.51893E-01
       7260     1.61027E+01     1.25664E+01     0.00000E+00     0.00000E+00          0.00000E+00

This summary file was closed on 30-Sep-2014 at 09:03:21.

