
This summary file was generated by HydroDyn v2.05.00 on 14-Apr-2016 at 09:53:03.




Volume Calculations(m^3)
------------------------
  Structure Volume     :    1.39310E+03
  Submerged Volume     :    1.14766E+03
  Marine Growth Volume :    0.00000E+00
  Ballasted Volume     :    0.00000E+00
              NOTE: Structure, Submerged and Marine Growth volumes are based on members not modelled with WAMIT
                      Ballasted volume is computed from all members which are marked as filled in the HydroDyn input file, regardless of PropPot flag



Buoyancy loads summed about ( 0.0, 0.0, 0.0 )
---------------------------------------------
                                BuoyFxi               BuoyFyi               BuoyFzi               BuoyMxi               BuoyMyi               BuoyMzi 
                                  (N)                   (N)                   (N)                  (N-m)                 (N-m)                 (N-m)  
 External:                  0.000000E+00          0.000000E+00         -2.674321E+06          0.000000E+00          0.000000E+00          0.000000E+00
 Internal:                  0.000000E+00          0.000000E+00          0.000000E+00          0.000000E+00          0.000000E+00          0.000000E+00
 Total   :                  0.000000E+00          0.000000E+00         -2.674321E+06          0.000000E+00          0.000000E+00          0.000000E+00
              NOTE: External buoyancy is based on members not modelled with WAMIT
                      Internal buoyancy is computed from all members which are marked as filled in the HydroDyn input file, regardless of PropPot flag
                    Total buoyancy does not include WAMIT-modelled buoyancy contribution



Weight loads about ( 0.0, 0.0, 0.0 )
------------------------------------
                                 MGFxi                 MGFyi                 MGFzi                 MGMxi                 MGMyi                 MGMzi  
                                  (N)                   (N)                   (N)                  (N-m)                 (N-m)                 (N-m)  
 Marine Growth:             0.000000E+00          0.000000E+00          0.000000E+00          0.000000E+00          0.000000E+00          0.000000E+00



Nodes


   i    JointIndx   JointOvrlp  InpMbrIndx     Nxi         Nyi         Nzi      InpMbrDist       R         dRdZ         t          tMG        MGDens      PropPot   FilledFlag   FillDens   FillFSLoc       Cd          Ca          Cp         AxCa        AxCp        JAxCd       JAxCa       JAxCp    NConn  Connection List
  (-)      (-)         (-)         (-)         (m)         (m)         (m)          (-)         (m)         (-)        (m)         (m)       (kg/m^3)      (-)         (-)       (kg/m^3)       (-)         (-)         (-)         (-)         (-)         (-)         (-)         (-)         (-)      (-)                  
     1           1           0           1      0.0000      0.0000      5.0000      0.0000   2.250E+00   0.000E+00   5.000E-02   0.000E+00   0.000E+00           F           F   0.000E+00   0.000E+00   6.000E-01   6.000E-01   1.000E+00   1.000E+00   1.000E+00   8.000E-01   9.000E-01   1.000E+00      1     1
     2           2           0           2      0.0000      0.0000      4.0000      0.0000   2.250E+00   0.000E+00   5.000E-02   0.000E+00   0.000E+00           F           F   0.000E+00   0.000E+00   6.000E-01   6.000E-01   1.000E+00   1.000E+00   1.000E+00   8.000E-01   9.000E-01   1.000E+00      1     2
     3           3           0           3      0.0000      0.0000      3.0000      0.0000   2.250E+00   0.000E+00   5.000E-02   0.000E+00   0.000E+00           F           F   0.000E+00   0.000E+00   6.000E-01   6.000E-01   1.000E+00   1.000E+00   1.000E+00   8.000E-01   9.000E-01   1.000E+00      1     3
     4           4           0           4      0.0000      0.0000      2.0000      0.0000   2.250E+00   0.000E+00   5.000E-02   0.000E+00   0.000E+00           F           F   0.000E+00   0.000E+00   6.000E-01   6.000E-01   1.000E+00   1.000E+00   1.000E+00   8.000E-01   9.000E-01   1.000E+00      1     4
     5           5           0           5      0.0000      0.0000      1.0000      0.0000   2.250E+00   0.000E+00   5.000E-02   0.000E+00   0.000E+00           F           F   0.000E+00   0.000E+00   6.000E-01   6.000E-01   1.000E+00   1.000E+00   1.000E+00   8.000E-01   9.000E-01   1.000E+00      1     5
     6           6           0           6      0.0000      0.0000      0.0000      0.0000   2.250E+00   0.000E+00   5.000E-02   0.000E+00   0.000E+00           F           F   0.000E+00   0.000E+00   6.000E-01   6.000E-01   1.000E+00   1.000E+00   1.000E+00   8.000E-01   9.000E-01   1.000E+00      1     6
     7           7           0           7      0.0000      0.0000    -20.0000      0.0000   3.250E+00   0.000E+00   4.000E-02   0.000E+00   0.000E+00           F           F   0.000E+00   0.000E+00   6.000E-01   6.000E-01   1.000E+00   1.000E+00   1.000E+00   9.000E-01   9.000E-01   1.000E+00      1     8
     8           8           0           7      0.0000      0.0000    -50.0000      1.0000   3.250E+00   0.000E+00   4.000E-02   0.000E+00   0.000E+00           F           F   0.000E+00   0.000E+00   6.000E-01   6.000E-01   1.000E+00   1.000E+00   1.000E+00   8.000E-01   1.000E+00   1.000E+00      1     7
     9           9           0           7      0.0000      0.0000    -45.0000      0.8333   3.250E+00   0.000E+00   4.000E-02   0.000E+00   0.000E+00           F           F   0.000E+00   0.000E+00   6.000E-01   6.000E-01   1.000E+00   1.000E+00   1.000E+00   0.000E+00   0.000E+00   0.000E+00      1     8
    10           2           0           1      0.0000      0.0000      4.0000      1.0000   2.250E+00   0.000E+00   5.000E-02   0.000E+00   0.000E+00           F           F   0.000E+00   0.000E+00   6.000E-01   6.000E-01   1.000E+00   1.000E+00   1.000E+00   8.000E-01   9.000E-01   1.000E+00      1     1
    11           3           0           2      0.0000      0.0000      3.0000      1.0000   2.250E+00   0.000E+00   5.000E-02   0.000E+00   0.000E+00           F           F   0.000E+00   0.000E+00   6.000E-01   6.000E-01   1.000E+00   1.000E+00   1.000E+00   8.000E-01   9.000E-01   1.000E+00      1     2
    12           4           0           3      0.0000      0.0000      2.0000      1.0000   2.250E+00   0.000E+00   5.000E-02   0.000E+00   0.000E+00           F           F   0.000E+00   0.000E+00   6.000E-01   6.000E-01   1.000E+00   1.000E+00   1.000E+00   8.000E-01   9.000E-01   1.000E+00      1     3
    13           5           0           4      0.0000      0.0000      1.0000      1.0000   2.250E+00   0.000E+00   5.000E-02   0.000E+00   0.000E+00           F           F   0.000E+00   0.000E+00   6.000E-01   6.000E-01   1.000E+00   1.000E+00   1.000E+00   8.000E-01   9.000E-01   1.000E+00      1     4
    14           6           0           5      0.0000      0.0000      0.0000      1.0000   2.250E+00   0.000E+00   5.000E-02   0.000E+00   0.000E+00           F           F   0.000E+00   0.000E+00   6.000E-01   6.000E-01   1.000E+00   1.000E+00   1.000E+00   8.000E-01   9.000E-01   1.000E+00      1     5
    15           7           0           6      0.0000      0.0000    -20.0000      1.0000   2.250E+00   0.000E+00   5.000E-02   0.000E+00   0.000E+00           F           F   0.000E+00   0.000E+00   6.000E-01   6.000E-01   1.000E+00   1.000E+00   1.000E+00   9.000E-01   9.000E-01   1.000E+00      1     6
    16           9           0           7      0.0000      0.0000    -45.0000      0.8333   3.250E+00   0.000E+00   4.000E-02   0.000E+00   0.000E+00           F           F   0.000E+00   0.000E+00   6.000E-01   6.000E-01   1.000E+00   1.000E+00   1.000E+00   0.000E+00   0.000E+00   0.000E+00      1     7



Elements


   i    node1  node2      Length       Volume       MGVolume          R1          tMG1           t1             R2          tMG2           t2          MGDens1       MGDens2        PropPot     FilledFlag   FillDensity    FillFSLoc     FillMass         Cd1            Ca1          Cp1          AxCa1         AxCp1        JAxCd1        JAxCa1        JAxCp1          Cd2           Ca2           Cp2          AxCa2         AxCp2        JAxCd2        JAxCa2        JAxCp2   
  (-)    (-)    (-)        (m)         (m^3)         (m^3)           (m)           (m)           (m)           (m)           (m)           (m)        (kg/m^3)      (kg/m^3)         (-)           (-)        (kg/m^3)         (-)          (kg)           (-)            (-)          (-)           (-)           (-)           (-)           (-)           (-)           (-)            (-)          (-)           (-)           (-)           (-)           (-)           (-)    
     1     10      1   1.00000E+00   1.59043E+01   0.00000E+00   2.25000E+00   0.00000E+00   5.00000E-02   2.25000E+00   0.00000E+00   5.00000E-02   0.00000E+00   0.00000E+00             F             F   0.00000E+00   0.00000E+00   0.00000E+00   6.00000E-01   6.00000E-01   1.00000E+00   1.00000E+00   1.00000E+00   8.00000E-01   9.00000E-01   1.00000E+00   6.00000E-01   6.00000E-01   1.00000E+00   1.00000E+00   1.00000E+00   8.00000E-01   9.00000E-01   1.00000E+00
     2     11      2   1.00000E+00   1.59043E+01   0.00000E+00   2.25000E+00   0.00000E+00   5.00000E-02   2.25000E+00   0.00000E+00   5.00000E-02   0.00000E+00   0.00000E+00             F             F   0.00000E+00   0.00000E+00   0.00000E+00   6.00000E-01   6.00000E-01   1.00000E+00   1.00000E+00   1.00000E+00   8.00000E-01   9.00000E-01   1.00000E+00   6.00000E-01   6.00000E-01   1.00000E+00   1.00000E+00   1.00000E+00   8.00000E-01   9.00000E-01   1.00000E+00
     3     12      3   1.00000E+00   1.59043E+01   0.00000E+00   2.25000E+00   0.00000E+00   5.00000E-02   2.25000E+00   0.00000E+00   5.00000E-02   0.00000E+00   0.00000E+00             F             F   0.00000E+00   0.00000E+00   0.00000E+00   6.00000E-01   6.00000E-01   1.00000E+00   1.00000E+00   1.00000E+00   8.00000E-01   9.00000E-01   1.00000E+00   6.00000E-01   6.00000E-01   1.00000E+00   1.00000E+00   1.00000E+00   8.00000E-01   9.00000E-01   1.00000E+00
     4     13      4   1.00000E+00   1.59043E+01   0.00000E+00   2.25000E+00   0.00000E+00   5.00000E-02   2.25000E+00   0.00000E+00   5.00000E-02   0.00000E+00   0.00000E+00             F             F   0.00000E+00   0.00000E+00   0.00000E+00   6.00000E-01   6.00000E-01   1.00000E+00   1.00000E+00   1.00000E+00   8.00000E-01   9.00000E-01   1.00000E+00   6.00000E-01   6.00000E-01   1.00000E+00   1.00000E+00   1.00000E+00   8.00000E-01   9.00000E-01   1.00000E+00
     5     14      5   1.00000E+00   1.59043E+01   0.00000E+00   2.25000E+00   0.00000E+00   5.00000E-02   2.25000E+00   0.00000E+00   5.00000E-02   0.00000E+00   0.00000E+00             F             F   0.00000E+00   0.00000E+00   0.00000E+00   6.00000E-01   6.00000E-01   1.00000E+00   1.00000E+00   1.00000E+00   8.00000E-01   9.00000E-01   1.00000E+00   6.00000E-01   6.00000E-01   1.00000E+00   1.00000E+00   1.00000E+00   8.00000E-01   9.00000E-01   1.00000E+00
     6     15      6   2.00000E+01   3.18086E+02   0.00000E+00   2.25000E+00   0.00000E+00   5.00000E-02   2.25000E+00   0.00000E+00   5.00000E-02   0.00000E+00   0.00000E+00             F             F   0.00000E+00   0.00000E+00   0.00000E+00   6.00000E-01   6.00000E-01   1.00000E+00   1.00000E+00   1.00000E+00   9.00000E-01   9.00000E-01   1.00000E+00   6.00000E-01   6.00000E-01   1.00000E+00   1.00000E+00   1.00000E+00   8.00000E-01   9.00000E-01   1.00000E+00
     7      8     16   5.00000E+00   1.65915E+02   0.00000E+00   3.25000E+00   0.00000E+00   4.00000E-02   3.25000E+00   0.00000E+00   4.00000E-02   0.00000E+00   0.00000E+00             F             F   0.00000E+00   0.00000E+00   0.00000E+00   6.00000E-01   6.00000E-01   1.00000E+00   1.00000E+00   1.00000E+00   8.00000E-01   1.00000E+00   1.00000E+00   6.00000E-01   6.00000E-01   1.00000E+00   1.00000E+00   1.00000E+00   0.00000E+00   0.00000E+00   0.00000E+00
     8      9      7   2.50000E+01   8.29577E+02   0.00000E+00   3.25000E+00   0.00000E+00   4.00000E-02   3.25000E+00   0.00000E+00   4.00000E-02   0.00000E+00   0.00000E+00             F             F   0.00000E+00   0.00000E+00   0.00000E+00   6.00000E-01   6.00000E-01   1.00000E+00   1.00000E+00   1.00000E+00   0.00000E+00   0.00000E+00   0.00000E+00   6.00000E-01   6.00000E-01   1.00000E+00   1.00000E+00   1.00000E+00   9.00000E-01   9.00000E-01   1.00000E+00



Requested Member Outputs


   Label         Xi          Yi          Zi      InpMbrIndx   StartXi     StartYi     StartZi      EndXi       EndYi       EndZi        Loc    
    (-)          (m)         (m)         (m)        (-)         (m)         (m)         (m)         (m)         (m)         (m)         (-)    



 Requested Joint Outputs


   Label         Xi          Yi          Zi      InpJointID
    (-)          (m)         (m)         (m)        (-)    
 J1Vxi           0.0000      0.0000      0.0000           6
 J1Vyi           0.0000      0.0000      0.0000           6
 J1Vzi           0.0000      0.0000      0.0000           6
 J1Axi           0.0000      0.0000      0.0000           6
 J1Ayi           0.0000      0.0000      0.0000           6
 J1Azi           0.0000      0.0000      0.0000           6
 J1DynP          0.0000      0.0000      0.0000           6
 J1FBxi          0.0000      0.0000      0.0000           6
 J1FByi          0.0000      0.0000      0.0000           6
 J1FBzi          0.0000      0.0000      0.0000           6
 J1MBxi          0.0000      0.0000      0.0000           6
 J1MByi          0.0000      0.0000      0.0000           6
 J1MBzi          0.0000      0.0000      0.0000           6
 J1FBFxi         0.0000      0.0000      0.0000           6
 J1FBFyi         0.0000      0.0000      0.0000           6
 J1FBFzi         0.0000      0.0000      0.0000           6
 J1MBFxi         0.0000      0.0000      0.0000           6
 J1MBFyi         0.0000      0.0000      0.0000           6
 J1MBFzi         0.0000      0.0000      0.0000           6
 J1FDxi          0.0000      0.0000      0.0000           6
 J1FDyi          0.0000      0.0000      0.0000           6
 J1FDzi          0.0000      0.0000      0.0000           6
 J1FIxi          0.0000      0.0000      0.0000           6
 J1FIyi          0.0000      0.0000      0.0000           6
 J1FIzi          0.0000      0.0000      0.0000           6
 J1FAMxi         0.0000      0.0000      0.0000           6
 J1FAMyi         0.0000      0.0000      0.0000           6
 J1FAMzi         0.0000      0.0000      0.0000           6

This summary file was closed on 14-Apr-2016 at 09:53:37.

