
These predictions were generated by HydroDyn on 06-Oct-2014 at 20:11:39.

    Time            Wave1Elev            Wave2Elev            Wave3Elev            Wave4Elev            Wave5Elev            Wave6Elev            Wave7Elev            Wave8Elev            Wave9Elev             WavesFxi             WavesFyi             WavesFzi             WavesMxi             WavesMyi             WavesMzi              M1N1Vxi              M1N1Vyi              M1N1Vzi              M1N2Vxi              M1N2Vyi              M1N2Vzi              M1N2Vxi              M1N2Vyi              M1N2Vzi              M2N2Vxi              M2N2Vyi              M2N2Vzi              M1N1Axi              M1N1Ayi              M1N1Azi              M1N2Axi              M1N2Ayi              M1N2Azi              M2N1Axi              M2N1Ayi              M2N1Azi              M2N2Axi              M2N2Ayi              M2N2Azi             M1N1DynP             M1N2DynP             M2N1DynP             M2N2DynP             M1N1FBxi             M1N1FByi             M1N1FBzi             M1N1MBxi             M1N1MByi             M1N1MBzi             M1N2FBxi             M1N2FByi             M1N2FBzi             M1N2MBxi             M1N2MByi             M1N2MBzi             M2N1FBxi             M2N1FByi             M2N1FBzi             M2N1MBxi             M2N1MByi             M2N1MBzi             M2N2FBxi             M2N2FByi             M2N2FBzi             M2N2MBxi             M2N2MByi             M2N2MBzi            M1N1FBFxi            M1N1FBFyi            M1N1FBFzi            M1N1MBFxi            M1N1MBFyi            M1N1MBFzi            M1N2FBFxi            M1N2FBFyi            M1N2FBFzi            M1N2MBFxi            M1N2MBFyi            M1N2MBFzi            M2N1FBFxi            M2N1FBFyi            M2N1FBFzi            M2N1MBFxi            M2N1MBFyi            M2N1MBFzi            M2N2FBFxi            M2N2FBFyi            M2N2FBFzi            M2N2MBFxi            M2N2MBFyi            M2N2MBFzi             M1N1FDxi             M1N1FDyi             M1N1FDzi             M1N2FDxi             M1N2FDyi             M1N2FDzi             M2N1FDxi             M2N1FDyi             M2N1FDzi             M2N2FDxi             M2N2FDyi             M2N2FDzi             M1N1FIxi             M1N1FIyi             M1N1FIzi             M1N2FIxi             M1N2FIyi             M1N2FIzi             M2N1FIxi             M2N1FIyi             M2N1FIzi             M2N2FIxi             M2N2FIyi             M2N2FIzi            M1N1FMGxi            M1N1FMGyi            M1N1FMGzi            M1N2FMGxi            M1N2FMGyi            M1N2FMGzi            M2N1FMGxi            M2N1FMGyi            M2N1FMGzi            M2N2FMGxi            M2N2FMGyi            M2N2FMGzi                J1Vxi                J1Vyi                J1Vzi                J2Vxi                J2Vyi                J2Vzi                J3Vxi                J3Vyi                J3Vzi                J1Axi                J1Ayi                J1Azi                J2Axi                J2Ayi                J2Azi                J3Axi                J3Ayi                J3Azi               J1FBxi               J1FByi               J1FBzi               J1MBxi               J1MByi               J1MBzi               J2FBxi               J2FByi               J2FBzi               J2MBxi               J2MByi               J2MBzi               J3FBxi               J3FByi               J3FBzi               J3MBxi               J3MByi               J3MBzi              J1FBFxi              J1FBFyi              J1FBFzi              J1MBFxi              J1MBFyi              J1MBFzi              J2FBFxi              J2FBFyi              J2FBFzi              J2MBFxi              J2MBFyi              J2MBFzi              J3FBFxi              J3FBFyi              J3FBFzi              J3MBFxi              J3MBFyi              J3MBFzi               J1FDxi               J1FDyi               J1FDzi               J2FDxi               J2FDyi               J2FDzi               J3FDxi               J3FDyi               J3FDzi
   (sec)                  (m)                  (m)                  (m)                  (m)                  (m)                  (m)                  (m)                  (m)                  (m)                  (N)                  (N)                  (N)                (N·m)                (N·m)                (N·m)                (m/s)                (m/s)                (m/s)                (m/s)                (m/s)                (m/s)                (m/s)                (m/s)                (m/s)                (m/s)                (m/s)                (m/s)              (m/s^2)              (m/s^2)              (m/s^2)              (m/s^2)              (m/s^2)              (m/s^2)              (m/s^2)              (m/s^2)              (m/s^2)              (m/s^2)              (m/s^2)              (m/s^2)                 (Pa)                 (Pa)                 (Pa)                 (Pa)                (N/m)                (N/m)                (N/m)                  (N)                  (N)                  (N)                (N/m)                (N/m)                (N/m)                  (N)                  (N)                  (N)                (N/m)                (N/m)                (N/m)                  (N)                  (N)                  (N)                (N/m)                (N/m)                (N/m)                  (N)                  (N)                  (N)                (N/m)                (N/m)                (N/m)                  (N)                  (N)                  (N)                (N/m)                (N/m)                (N/m)                  (N)                  (N)                  (N)                (N/m)                (N/m)                (N/m)                  (N)                  (N)                  (N)                (N/m)                (N/m)                (N/m)                  (N)                  (N)                  (N)                (N/m)                (N/m)                (N/m)                (N/m)                (N/m)                (N/m)                (N/m)                (N/m)                (N/m)                (N/m)                (N/m)                (N/m)                (N/m)                (N/m)                (N/m)                (N/m)                (N/m)                (N/m)                (N/m)                (N/m)                (N/m)                (N/m)                (N/m)                (N/m)                (N/m)                (N/m)                (N/m)                (N/m)                (N/m)                (N/m)                (N/m)                (N/m)                (N/m)                (N/m)                (N/m)                (N/m)                (m/s)                (m/s)                (m/s)                (m/s)                (m/s)                (m/s)                (m/s)                (m/s)                (m/s)              (m/s^2)              (m/s^2)              (m/s^2)              (m/s^2)              (m/s^2)              (m/s^2)              (m/s^2)              (m/s^2)              (m/s^2)                  (N)                  (N)                  (N)                (N-m)                (N-m)                (N-m)                  (N)                  (N)                  (N)                (N-m)                (N-m)                (N-m)                  (N)                  (N)                  (N)                (N-m)                (N-m)                (N-m)                  (N)                  (N)                  (N)                (N-m)                (N-m)                (N-m)                  (N)                  (N)                  (N)                (N-m)                (N-m)                (N-m)                  (N)                  (N)                  (N)                (N-m)                (N-m)                (N-m)                  (N)                  (N)                  (N)                  (N)                  (N)                  (N)                  (N)                  (N)                  (N)
    0.0000           4.2194E-01           4.2194E-01           4.2194E-01           3.4515E-01           3.4515E-01           3.4515E-01           3.2012E-01           3.2012E-01           3.2012E-01           0.0000E+00           0.0000E+00           0.0000E+00           0.0000E+00           0.0000E+00           0.0000E+00           0.0000E+00           0.0000E+00           0.0000E+00           1.2158E-01           0.0000E+00          -1.7919E-01           1.2158E-01           0.0000E+00          -1.7919E-01           0.0000E+00           0.0000E+00           0.0000E+00           0.0000E+00           0.0000E+00           0.0000E+00          -1.4969E-01           0.0000E+00          -1.1621E-01          -1.4969E-01           0.0000E+00          -1.1621E-01           0.0000E+00           0.0000E+00           0.0000E+00           0.0000E+00           1.1915E+03           1.1915E+03           0.0000E+00           0.0000E+00           0.0000E+00           0.0000E+00           0.0000E+00           0.0000E+00           0.0000E+00           0.0000E+00           0.0000E+00           0.0000E+00           0.0000E+00           0.0000E+00           0.0000E+00           0.0000E+00           0.0000E+00           0.0000E+00           0.0000E+00           0.0000E+00           0.0000E+00           0.0000E+00           0.0000E+00           0.0000E+00           0.0000E+00           0.0000E+00           0.0000E+00           0.0000E+00           0.0000E+00           0.0000E+00           0.0000E+00           0.0000E+00           0.0000E+00           0.0000E+00           0.0000E+00           0.0000E+00           0.0000E+00           0.0000E+00           0.0000E+00           0.0000E+00           0.0000E+00           0.0000E+00           0.0000E+00           0.0000E+00           0.0000E+00           0.0000E+00           0.0000E+00           0.0000E+00           0.0000E+00           0.0000E+00           0.0000E+00           0.0000E+00           0.0000E+00           0.0000E+00          -2.8352E+04          -3.9399E+04           0.0000E+00          -2.8352E+04          -3.9399E+04           0.0000E+00           0.0000E+00           0.0000E+00           0.0000E+00           0.0000E+00           0.0000E+00           0.0000E+00          -8.1462E+03           0.0000E+00           0.0000E+00          -8.1462E+03           0.0000E+00           0.0000E+00           0.0000E+00           0.0000E+00           0.0000E+00           0.0000E+00           0.0000E+00           0.0000E+00           0.0000E+00           0.0000E+00           0.0000E+00           0.0000E+00           0.0000E+00           0.0000E+00           0.0000E+00           0.0000E+00           0.0000E+00           0.0000E+00           0.0000E+00           0.0000E+00           1.2158E-01           0.0000E+00          -1.7919E-01           0.0000E+00           0.0000E+00           0.0000E+00           0.0000E+00           0.0000E+00           0.0000E+00          -1.4969E-01           0.0000E+00          -1.1621E-01           0.0000E+00           0.0000E+00           0.0000E+00           0.0000E+00           0.0000E+00           0.0000E+00           0.0000E+00           0.0000E+00           0.0000E+00           0.0000E+00           0.0000E+00           0.0000E+00           0.0000E+00           0.0000E+00           0.0000E+00           0.0000E+00           0.0000E+00           0.0000E+00           0.0000E+00           0.0000E+00           0.0000E+00           0.0000E+00           0.0000E+00           0.0000E+00           0.0000E+00           0.0000E+00           0.0000E+00           0.0000E+00           0.0000E+00           0.0000E+00           0.0000E+00           0.0000E+00           0.0000E+00           0.0000E+00           0.0000E+00           0.0000E+00           0.0000E+00           0.0000E+00           0.0000E+00           0.0000E+00           0.0000E+00           0.0000E+00           0.0000E+00           0.0000E+00           0.0000E+00           0.0000E+00           0.0000E+00           0.0000E+00

This output file was closed on 06-Oct-2014 at 20:11:39.

